version 3
run Default-0-20260221-11:38:53-36785
attr configname Default
attr datetime 20260221-11:38:53
attr datetimef 20260221-113853
attr experiment Default
attr inifile omnetpp.ini
attr iterationvars ""
attr iterationvarsd ""
attr iterationvarsf ""
attr measurement ""
attr network RSUExampleScenario
attr processid 36785
attr repetition 0
attr replication #0
attr resultdir results
attr runnumber 0
attr seedset 0
config image-path ../../../../inet/images:../../../../veins/images:../../../../veins/subprojects/veins_inet/images
config cmdenv-express-mode true
config cmdenv-autoflush true
config cmdenv-status-frequency 1s
config **.cmdenv-log-level info
config image-path ../../images
config network RSUExampleScenario
config debug-on-errors true
config print-undisposed true
config sim-time-limit 200s
config **.scalar-recording true
config **.vector-recording true
config *.playgroundSizeX 2500m
config *.playgroundSizeY 2500m
config *.playgroundSizeZ 50m
config *.annotations.draw true
config *.obstacles.obstacles "xmldoc(\"config.xml\", \"//AnalogueModel[@type='SimpleObstacleShadowing']/obstacles\")"
config *.manager.updateInterval 1s
config *.manager.host "\"localhost\""
config *.manager.port 9999
config *.manager.autoShutdown true
config *.manager.launchConfig "xmldoc(\"erlangen.launchd.xml\")"
config *.manager.trafficLightModuleType "\"org.car2x.veins.nodes.TrafficLight\""
config *.tls[*].mobility.x 0
config *.tls[*].mobility.y 0
config *.tls[*].mobility.z 3
config *.tls[*].applType "\"org.car2x.veins.modules.application.traci.TraCIDemoTrafficLightApp\""
config *.tls[*].logicType "\"org.car2x.veins.modules.world.traci.trafficLight.logics.TraCITrafficLightSimpleLogic\""
config *.rsu[0].mobility.x 2000
config *.rsu[0].mobility.y 2000
config *.rsu[0].mobility.z 3
config *.rsu[*].applType "\"TraCIDemoRSU11p\""
config *.rsu[*].appl.headerLength "80 bit"
config *.rsu[*].appl.sendBeacons false
config *.rsu[*].appl.dataOnSch false
config *.rsu[*].appl.beaconInterval 1s
config *.rsu[*].appl.beaconUserPriority 7
config *.rsu[*].appl.dataUserPriority 5
config *.rsu[*].nic.phy80211p.antennaOffsetZ "0 m"
config *.connectionManager.sendDirect true
config *.connectionManager.maxInterfDist 2600m
config *.connectionManager.drawMaxIntfDist false
config *.**.nic.mac1609_4.useServiceChannel false
config *.**.nic.mac1609_4.txPower 20mW
config *.**.nic.mac1609_4.bitrate 6Mbps
config *.**.nic.phy80211p.minPowerLevel -110dBm
config *.**.nic.phy80211p.useNoiseFloor true
config *.**.nic.phy80211p.noiseFloor -98dBm
config *.**.nic.phy80211p.decider "xmldoc(\"config.xml\")"
config *.**.nic.phy80211p.analogueModels "xmldoc(\"config.xml\")"
config *.**.nic.phy80211p.usePropagationDelay true
config *.**.nic.phy80211p.antenna "xmldoc(\"antenna.xml\", \"/root/Antenna[@id='monopole']\")"
config *.node[*].nic.phy80211p.antennaOffsetY "0 m"
config *.node[*].nic.phy80211p.antennaOffsetZ "1.895 m"
config *.node[*].applType "\"TraCIDemo11p\""
config *.node[*].appl.headerLength "80 bit"
config *.node[*].appl.sendBeacons false
config *.node[*].appl.dataOnSch false
config *.node[*].appl.beaconInterval 1s
config *.node[*].veinsmobility.x 0
config *.node[*].veinsmobility.y 0
config *.node[*].veinsmobility.z 0
config *.node[*].veinsmobility.setHostSpeed false
config *.node[*0].veinsmobility.accidentCount 1
config *.node[*0].veinsmobility.accidentStart 73s
config *.node[*0].veinsmobility.accidentDuration 50s

vector 0 RSUExampleScenario.rsu[0].nic.phy80211p RadioState ETV
vector 1 RSUExampleScenario.rsu[0].nic.phy80211p RadioChannel ETV
vector 2 RSUExampleScenario.node[0].nic.phy80211p RadioState ETV
vector 3 RSUExampleScenario.node[0].nic.phy80211p RadioChannel ETV
vector 4 RSUExampleScenario.manager posx ETV
vector 5 RSUExampleScenario.manager posy ETV
vector 6 RSUExampleScenario.manager speed ETV
vector 7 RSUExampleScenario.manager acceleration ETV
vector 8 RSUExampleScenario.manager co2emission ETV
vector 9 RSUExampleScenario.node[1].nic.phy80211p RadioState ETV
vector 10 RSUExampleScenario.node[1].nic.phy80211p RadioChannel ETV
vector 11 RSUExampleScenario.manager posx ETV
vector 12 RSUExampleScenario.manager posy ETV
vector 13 RSUExampleScenario.manager speed ETV
vector 14 RSUExampleScenario.manager acceleration ETV
vector 15 RSUExampleScenario.manager co2emission ETV
vector 16 RSUExampleScenario.node[2].nic.phy80211p RadioState ETV
vector 17 RSUExampleScenario.node[2].nic.phy80211p RadioChannel ETV
vector 18 RSUExampleScenario.manager posx ETV
vector 19 RSUExampleScenario.manager posy ETV
vector 20 RSUExampleScenario.manager speed ETV
vector 21 RSUExampleScenario.manager acceleration ETV
vector 22 RSUExampleScenario.manager co2emission ETV
vector 23 RSUExampleScenario.node[3].nic.phy80211p RadioState ETV
vector 24 RSUExampleScenario.node[3].nic.phy80211p RadioChannel ETV
vector 25 RSUExampleScenario.manager posx ETV
vector 26 RSUExampleScenario.manager posy ETV
vector 27 RSUExampleScenario.manager speed ETV
vector 28 RSUExampleScenario.manager acceleration ETV
vector 29 RSUExampleScenario.manager co2emission ETV
vector 30 RSUExampleScenario.node[4].nic.phy80211p RadioState ETV
vector 31 RSUExampleScenario.node[4].nic.phy80211p RadioChannel ETV
vector 32 RSUExampleScenario.manager posx ETV
vector 33 RSUExampleScenario.manager posy ETV
vector 34 RSUExampleScenario.manager speed ETV
vector 35 RSUExampleScenario.manager acceleration ETV
vector 36 RSUExampleScenario.manager co2emission ETV
vector 37 RSUExampleScenario.node[5].nic.phy80211p RadioState ETV
vector 38 RSUExampleScenario.node[5].nic.phy80211p RadioChannel ETV
vector 39 RSUExampleScenario.manager posx ETV
vector 40 RSUExampleScenario.manager posy ETV
vector 41 RSUExampleScenario.manager speed ETV
vector 42 RSUExampleScenario.manager acceleration ETV
vector 43 RSUExampleScenario.manager co2emission ETV
vector 44 RSUExampleScenario.node[6].nic.phy80211p RadioState ETV
vector 45 RSUExampleScenario.node[6].nic.phy80211p RadioChannel ETV
vector 46 RSUExampleScenario.manager posx ETV
vector 47 RSUExampleScenario.manager posy ETV
vector 48 RSUExampleScenario.manager speed ETV
vector 49 RSUExampleScenario.manager acceleration ETV
vector 50 RSUExampleScenario.manager co2emission ETV
vector 51 RSUExampleScenario.node[7].nic.phy80211p RadioState ETV
vector 52 RSUExampleScenario.node[7].nic.phy80211p RadioChannel ETV
vector 53 RSUExampleScenario.manager posx ETV
vector 54 RSUExampleScenario.manager posy ETV
vector 55 RSUExampleScenario.manager speed ETV
vector 56 RSUExampleScenario.manager acceleration ETV
vector 57 RSUExampleScenario.manager co2emission ETV
vector 58 RSUExampleScenario.node[8].nic.phy80211p RadioState ETV
vector 59 RSUExampleScenario.node[8].nic.phy80211p RadioChannel ETV
vector 60 RSUExampleScenario.manager posx ETV
vector 61 RSUExampleScenario.manager posy ETV
vector 62 RSUExampleScenario.manager speed ETV
vector 63 RSUExampleScenario.manager acceleration ETV
vector 64 RSUExampleScenario.manager co2emission ETV
vector 65 RSUExampleScenario.node[9].nic.phy80211p RadioState ETV
vector 66 RSUExampleScenario.node[9].nic.phy80211p RadioChannel ETV
vector 67 RSUExampleScenario.manager posx ETV
vector 68 RSUExampleScenario.manager posy ETV
vector 69 RSUExampleScenario.manager speed ETV
vector 70 RSUExampleScenario.manager acceleration ETV
vector 71 RSUExampleScenario.manager co2emission ETV
vector 72 RSUExampleScenario.node[10].nic.phy80211p RadioState ETV
vector 73 RSUExampleScenario.node[10].nic.phy80211p RadioChannel ETV
vector 74 RSUExampleScenario.manager posx ETV
vector 75 RSUExampleScenario.manager posy ETV
vector 76 RSUExampleScenario.manager speed ETV
vector 77 RSUExampleScenario.manager acceleration ETV
vector 78 RSUExampleScenario.manager co2emission ETV
vector 79 RSUExampleScenario.node[11].nic.phy80211p RadioState ETV
vector 80 RSUExampleScenario.node[11].nic.phy80211p RadioChannel ETV
vector 81 RSUExampleScenario.manager posx ETV
vector 82 RSUExampleScenario.manager posy ETV
vector 83 RSUExampleScenario.manager speed ETV
vector 84 RSUExampleScenario.manager acceleration ETV
vector 85 RSUExampleScenario.manager co2emission ETV
vector 86 RSUExampleScenario.node[12].nic.phy80211p RadioState ETV
vector 87 RSUExampleScenario.node[12].nic.phy80211p RadioChannel ETV
vector 88 RSUExampleScenario.manager posx ETV
vector 89 RSUExampleScenario.manager posy ETV
vector 90 RSUExampleScenario.manager speed ETV
vector 91 RSUExampleScenario.manager acceleration ETV
vector 92 RSUExampleScenario.manager co2emission ETV
vector 93 RSUExampleScenario.node[13].nic.phy80211p RadioState ETV
vector 94 RSUExampleScenario.node[13].nic.phy80211p RadioChannel ETV
vector 95 RSUExampleScenario.manager posx ETV
vector 96 RSUExampleScenario.manager posy ETV
vector 97 RSUExampleScenario.manager speed ETV
vector 98 RSUExampleScenario.manager acceleration ETV
vector 99 RSUExampleScenario.manager co2emission ETV
vector 100 RSUExampleScenario.node[14].nic.phy80211p RadioState ETV
vector 101 RSUExampleScenario.node[14].nic.phy80211p RadioChannel ETV
vector 102 RSUExampleScenario.manager posx ETV
vector 103 RSUExampleScenario.manager posy ETV
vector 104 RSUExampleScenario.manager speed ETV
vector 105 RSUExampleScenario.manager acceleration ETV
vector 106 RSUExampleScenario.manager co2emission ETV
vector 107 RSUExampleScenario.node[15].nic.phy80211p RadioState ETV
vector 108 RSUExampleScenario.node[15].nic.phy80211p RadioChannel ETV
vector 109 RSUExampleScenario.manager posx ETV
vector 110 RSUExampleScenario.manager posy ETV
vector 111 RSUExampleScenario.manager speed ETV
vector 112 RSUExampleScenario.manager acceleration ETV
vector 113 RSUExampleScenario.manager co2emission ETV
vector 114 RSUExampleScenario.node[16].nic.phy80211p RadioState ETV
vector 115 RSUExampleScenario.node[16].nic.phy80211p RadioChannel ETV
vector 116 RSUExampleScenario.manager posx ETV
vector 117 RSUExampleScenario.manager posy ETV
vector 118 RSUExampleScenario.manager speed ETV
vector 119 RSUExampleScenario.manager acceleration ETV
vector 120 RSUExampleScenario.manager co2emission ETV
vector 121 RSUExampleScenario.node[17].nic.phy80211p RadioState ETV
vector 122 RSUExampleScenario.node[17].nic.phy80211p RadioChannel ETV
vector 123 RSUExampleScenario.manager posx ETV
vector 124 RSUExampleScenario.manager posy ETV
vector 125 RSUExampleScenario.manager speed ETV
vector 126 RSUExampleScenario.manager acceleration ETV
vector 127 RSUExampleScenario.manager co2emission ETV
vector 128 RSUExampleScenario.node[18].nic.phy80211p RadioState ETV
vector 129 RSUExampleScenario.node[18].nic.phy80211p RadioChannel ETV
vector 130 RSUExampleScenario.manager posx ETV
vector 131 RSUExampleScenario.manager posy ETV
vector 132 RSUExampleScenario.manager speed ETV
vector 133 RSUExampleScenario.manager acceleration ETV
vector 134 RSUExampleScenario.manager co2emission ETV
vector 135 RSUExampleScenario.node[19].nic.phy80211p RadioState ETV
vector 136 RSUExampleScenario.node[19].nic.phy80211p RadioChannel ETV
vector 137 RSUExampleScenario.manager posx ETV
vector 138 RSUExampleScenario.manager posy ETV
vector 139 RSUExampleScenario.manager speed ETV
vector 140 RSUExampleScenario.manager acceleration ETV
vector 141 RSUExampleScenario.manager co2emission ETV
vector 142 RSUExampleScenario.node[20].nic.phy80211p RadioState ETV
vector 143 RSUExampleScenario.node[20].nic.phy80211p RadioChannel ETV
vector 144 RSUExampleScenario.manager posx ETV
vector 145 RSUExampleScenario.manager posy ETV
vector 146 RSUExampleScenario.manager speed ETV
vector 147 RSUExampleScenario.manager acceleration ETV
vector 148 RSUExampleScenario.manager co2emission ETV
vector 149 RSUExampleScenario.node[21].nic.phy80211p RadioState ETV
vector 150 RSUExampleScenario.node[21].nic.phy80211p RadioChannel ETV
vector 151 RSUExampleScenario.manager posx ETV
vector 152 RSUExampleScenario.manager posy ETV
vector 153 RSUExampleScenario.manager speed ETV
vector 154 RSUExampleScenario.manager acceleration ETV
vector 155 RSUExampleScenario.manager co2emission ETV
vector 156 RSUExampleScenario.node[22].nic.phy80211p RadioState ETV
vector 157 RSUExampleScenario.node[22].nic.phy80211p RadioChannel ETV
vector 158 RSUExampleScenario.manager posx ETV
vector 159 RSUExampleScenario.manager posy ETV
vector 160 RSUExampleScenario.manager speed ETV
vector 161 RSUExampleScenario.manager acceleration ETV
vector 162 RSUExampleScenario.manager co2emission ETV
vector 163 RSUExampleScenario.node[23].nic.phy80211p RadioState ETV
vector 164 RSUExampleScenario.node[23].nic.phy80211p RadioChannel ETV
vector 165 RSUExampleScenario.manager posx ETV
vector 166 RSUExampleScenario.manager posy ETV
vector 167 RSUExampleScenario.manager speed ETV
vector 168 RSUExampleScenario.manager acceleration ETV
vector 169 RSUExampleScenario.manager co2emission ETV
vector 170 RSUExampleScenario.node[24].nic.phy80211p RadioState ETV
vector 171 RSUExampleScenario.node[24].nic.phy80211p RadioChannel ETV
vector 172 RSUExampleScenario.manager posx ETV
vector 173 RSUExampleScenario.manager posy ETV
vector 174 RSUExampleScenario.manager speed ETV
vector 175 RSUExampleScenario.manager acceleration ETV
vector 176 RSUExampleScenario.manager co2emission ETV
vector 177 RSUExampleScenario.node[25].nic.phy80211p RadioState ETV
vector 178 RSUExampleScenario.node[25].nic.phy80211p RadioChannel ETV
vector 179 RSUExampleScenario.manager posx ETV
vector 180 RSUExampleScenario.manager posy ETV
vector 181 RSUExampleScenario.manager speed ETV
vector 182 RSUExampleScenario.manager acceleration ETV
vector 183 RSUExampleScenario.manager co2emission ETV
vector 184 RSUExampleScenario.node[26].nic.phy80211p RadioState ETV
vector 185 RSUExampleScenario.node[26].nic.phy80211p RadioChannel ETV
vector 186 RSUExampleScenario.manager posx ETV
vector 187 RSUExampleScenario.manager posy ETV
vector 188 RSUExampleScenario.manager speed ETV
vector 189 RSUExampleScenario.manager acceleration ETV
vector 190 RSUExampleScenario.manager co2emission ETV
vector 191 RSUExampleScenario.node[27].nic.phy80211p RadioState ETV
vector 192 RSUExampleScenario.node[27].nic.phy80211p RadioChannel ETV
vector 193 RSUExampleScenario.manager posx ETV
vector 194 RSUExampleScenario.manager posy ETV
vector 195 RSUExampleScenario.manager speed ETV
vector 196 RSUExampleScenario.manager acceleration ETV
vector 197 RSUExampleScenario.manager co2emission ETV
vector 198 RSUExampleScenario.node[28].nic.phy80211p RadioState ETV
vector 199 RSUExampleScenario.node[28].nic.phy80211p RadioChannel ETV
vector 200 RSUExampleScenario.manager posx ETV
vector 201 RSUExampleScenario.manager posy ETV
vector 202 RSUExampleScenario.manager speed ETV
4	2	1	2414.8476884116
4	3	2	2411.8243290941
4	4	3	2407.1592244543
4	5	4	2402.288200066
4	6	5	2396.1394374635
4	7	6	2388.6993875942
4	8	7	2379.889221533
4	9	8	2370.1207192459
4	10	9	2360.3141803208
4	11	10	2350.5099475634
4	12	11	2341.0010868867
4	13	12	2334.5620136983
4	14	13	2337.6803779466
4	15	14	2348.3497968862
4	16	15	2358.6961674725
4	17	16	2371.6616533546
4	18	17	2385.4706804305
4	19	18	2399.3588350668
4	20	19	2412.4541998667
4	21	20	2421.4418196582
4	22	21	2428.417609864
4	23	22	2431.468930052
4	24	23	2433.1513403206
4	25	24	2435.1237040944
4	26	25	2437.2173147583
4	27	26	2438.6437980286
4	28	27	2439.5074353185
4	29	28	2440.517813261
4	30	29	2441.5286354903
4	31	30	2442.5392864447
4	32	31	2443.5505626462
4	33	32	2444.5611125134
4	34	33	2445.5724211388
4	35	34	2446.5834693939
4	36	35	2447.5934051003
4	37	36	2448.6036931522
4	38	37	2449.6148620235
4	39	38	2450.6248001783
4	40	39	2449.5880553933
4	41	40	2448.4757357414
4	42	41	2447.3635385588
4	43	42	2446.250303259
4	44	43	2445.1365203297
4	45	44	2444.0235521834
4	46	45	2442.9111769209
4	47	46	2441.7982721732
4	48	47	2440.6856421625
4	49	48	2439.7151308154
4	50	49	2438.7725309408
4	51	50	2437.9056889905
4	52	51	2432.8785054281
4	53	52	2422.5273191113
4	54	53	2409.439604845
4	55	54	2395.517893619
4	56	55	2381.592286239
4	57	56	2367.6659531716
4	58	57	2353.7601239877
4	59	58	2339.8337569573
4	60	59	2325.9069679289
4	61	60	2311.9542202253
4	62	61	2298.0325140053
4	63	62	2284.0857072632
4	64	63	2270.1754193477
4	65	64	2256.2378749268
4	66	65	2242.3725172955
4	67	66	2228.5568932705
4	68	67	2214.8035730832
4	69	68	2201.6130456962
4	70	69	2188.4247624045
4	71	70	2175.5107078577
4	72	71	2163.5018647154
4	73	72	2152.2359160049
4	74	73	2144.5614629743
4	76	74	2140.764952604
4	77	75	2140.3209259163
4	78	76	2140.3209259163
4	79	77	2140.3209259163
4	80	78	2140.3209259163
4	81	79	2140.3209259163
4	82	80	2140.3209259163
4	83	81	2140.3209259163
4	84	82	2140.3209259163
4	85	83	2140.3209259163
4	86	84	2140.3209259163
4	203	85	2140.3209259163
4	204	86	2140.3209259163
5	2	1	1578.4613427464
5	3	2	1579.5715045081
5	4	3	1581.5561876604
5	5	4	1586.4898643075
5	6	5	1592.7177137369
5	7	6	1600.2534592729
5	8	7	1609.1769437566
5	9	8	1619.0710908128
5	10	9	1629.0037637418
5	11	10	1638.9341008412
5	12	11	1649.1129276818
5	13	12	1661.0453354148
5	14	13	1673.5713017788
5	15	14	1682.4825292248
5	16	15	1691.8131453674
5	17	16	1695.5671389326
5	18	17	1697.3762977775
5	19	18	1698.7149431584
5	20	19	1699.9531973498
5	21	20	1700.8030368192
5	22	21	1701.4822415169
5	23	22	1709.488976148
5	24	23	1720.5600911779
5	25	24	1733.5392477075
5	26	25	1747.3162704222
5	27	26	1761.1584832035
5	28	27	1775.0702432813
5	29	28	1788.9649324082
5	30	29	1802.8657313576
5	31	30	1816.7641749373
5	32	31	1830.6712168986
5	33	32	1844.5682703312
5	34	33	1858.4757581847
5	35	34	1872.3796654344
5	36	35	1886.2682729438
5	37	36	1900.1617258992
5	38	37	1914.0672918586
5	39	38	1927.95593304
5	40	39	1941.8192613758
5	41	40	1955.7024557721
5	42	41	1969.5841215905
5	43	42	1983.4787444612
5	44	43	1997.3802024601
5	45	44	2011.2714909082
5	46	45	2025.1553793969
5	47	46	2039.0458765477
5	48	47	2052.9329446238
5	49	48	2066.8462265795
5	50	49	2080.7728807703
5	51	50	2094.6498483503
5	52	51	2107.3969092406
5	53	52	2116.410831539
5	54	53	2120.9360540062
5	55	54	2120.5048353085
5	56	55	2120.0344859883
5	57	56	2119.5641121576
5	58	57	2119.0944308629
5	59	58	2118.6240558857
5	60	59	2118.1536666537
5	61	60	2117.6824006466
5	62	61	2117.2121830918
5	63	62	2116.7411177447
5	64	63	2116.2712858524
5	65	64	2115.8005333487
5	66	65	2114.7955725584
5	67	66	2112.8364102887
5	68	67	2110.6440530941
5	69	68	2106.1704403665
5	70	69	2101.6975887315
5	71	70	2096.6391956527
5	72	71	2089.5697793076
5	73	72	2082.9376931852
5	74	73	2078.419863862
5	76	74	2076.1849181512
5	77	75	2075.9235266512
5	78	76	2075.9235266512
5	79	77	2075.9235266512
5	80	78	2075.9235266512
5	81	79	2075.9235266512
5	82	80	2075.9235266512
5	83	81	2075.9235266512
5	84	82	2075.9235266512
5	85	83	2075.9235266512
5	86	84	2075.9235266512
5	203	85	2075.9235266512
5	204	86	2075.9235266512
6	3	2	4.1061966058897
6	4	3	6.0195495591482
6	5	4	7.7148368984793
6	6	5	9.5879868385225
6	7	6	11.391389363371
6	8	7	13.513839789145
6	9	8	13.99235115225
6	10	9	13.890224446259
6	11	10	13.976677174468
6	12	11	13.994826577434
6	13	12	13.923680325528
6	14	13	13.923542996629
6	15	14	13.91007151508
6	16	15	13.964598868005
6	17	16	13.995233640105
6	18	17	13.952304350403
6	19	18	13.956911946491
6	20	19	11.503494614513
6	21	20	7.0034946145128
6	22	21	7.8970062485022
6	23	22	10.10483181514
6	24	23	11.990706169653
6	25	24	13.981089308816
6	26	25	13.965594365916
6	27	26	13.989059597438
6	28	27	13.956378436291
6	29	28	13.910982951869
6	30	29	13.88918493646
6	31	30	13.908189346099
6	32	31	13.983992603337
6	33	32	13.971500478752
6	34	33	13.873081948087
6	35	34	13.985133641064
6	36	35	13.886848415199
6	37	36	13.876205747321
6	38	37	13.967912819823
6	39	38	13.871047234884
6	40	39	13.89239756926
6	41	40	13.872267716837
6	42	41	13.999815066161
6	43	42	13.964707984752
6	44	43	13.906584702837
6	45	44	13.922364303169
6	46	45	13.929034490574
6	47	46	13.93922677479
6	48	47	13.924399639922
6	49	48	13.96850544848
6	50	49	13.986686690277
6	51	50	13.935194088209
6	52	51	13.930097484484
6	53	52	13.948393711536
6	54	53	13.882971800906
6	55	54	13.87138918183
6	56	55	13.933780807857
6	57	56	13.942265776542
6	58	57	13.95140511482
6	59	58	13.886548467774
6	60	59	13.920721456567
6	61	60	13.906796863726
6	62	61	13.917803910668
6	63	62	13.924582225601
6	64	63	13.959688465288
6	65	64	13.957318032989
6	66	65	13.940553226951
6	67	66	13.998651232829
6	68	67	13.999179182528
6	69	68	13.886099785112
6	70	69	13.881868150404
6	71	70	13.887636745651
6	72	71	13.978686858166
6	73	72	11.380505228889
6	74	73	6.8805052288885
6	76	74	2.3805052288885
6	77	75	0
6	78	76	0
6	79	77	0
6	80	78	0
6	81	79	0
6	82	80	0
6	83	81	0
6	84	82	0
6	85	83	0
6	86	84	0
6	203	85	0
6	204	86	0
7	4	3	1.9133529532584
7	5	4	1.6952873393311
7	6	5	1.8731499400432
7	7	6	1.8034025248489
7	8	7	2.1224504257739
7	9	8	0.47851136310433
7	10	9	-0.1021267059911
7	11	10	0.086452728209551
7	12	11	0.018149402965792
7	13	12	-0.071146251906175
7	14	13	-0.0001373288989992
7	15	14	-0.013471481548622
7	16	15	0.054527352924923
7	17	16	0.03063477210002
7	18	17	-0.04292928970186
7	19	18	0.0046075960877356
7	20	19	-2.4534173319781
7	21	20	-4.5
7	22	21	0.8935116339894
7	23	22	2.2078255666373
7	24	23	1.8858743545134
7	25	24	1.9903831391631
7	26	25	-0.01549494290026
7	27	26	0.023465231521987
7	28	27	-0.032681161146611
7	29	28	-0.045395484422334
7	30	29	-0.021798015409148
7	31	30	0.019004409639164
7	32	31	0.075803257238585
7	33	32	-0.012492124584968
7	34	33	-0.098418530665803
7	35	34	0.11205169297755
7	36	35	-0.098285225864965
7	37	36	-0.01064266787842
7	38	37	0.091707072502468
7	39	38	-0.096865584938786
7	40	39	0.021350334375166
7	41	40	-0.020129852422979
7	42	41	0.12754734932445
7	43	42	-0.035107081409079
7	44	43	-0.058123281914741
7	45	44	0.015779600332026
7	46	45	0.0066701874043797
7	47	46	0.010192284216172
7	48	47	-0.014827134867664
7	49	48	0.044105808557942
7	50	49	0.018181241797283
7	51	50	-0.051492602068466
7	52	51	-0.0050966037251055
7	53	52	0.018296227052343
7	54	53	-0.065421910630539
7	55	54	-0.011582619075197
7	56	55	0.062391626026946
7	57	56	0.0084849686850799
7	58	57	0.0091393382777465
7	59	58	-0.064856647045817
7	60	59	0.034172988792415
7	61	60	-0.013924592840485
7	62	61	0.011007046941668
7	63	62	0.0067783149331806
7	64	63	0.035106239686721
7	65	64	-0.0023704322986315
7	66	65	-0.016764806038699
7	67	66	0.058098005878273
7	68	67	0.0005279496987356
7	69	68	-0.11307939741528
7	70	69	-0.0042316347081215
7	71	70	0.0057685952470639
7	72	71	0.091050112515221
7	73	72	-2.598181629278
7	74	73	-4.5
7	76	74	-4.5
7	77	75	-2.3805052288885
7	78	76	0
7	79	77	0
7	80	78	0
7	81	79	0
7	82	80	0
7	83	81	0
7	84	82	0
7	85	83	0
7	86	84	0
7	203	85	0
7	204	86	0
8	4	3	4.1962556146115
8	5	4	4.6765885426193
8	6	5	5.9822455727343
8	7	6	6.7469998477461
8	8	7	8.9023657158011
8	9	8	3.651678681686
8	10	9	1.6857621818206
8	11	10	2.3276633668785
8	12	11	2.0995306276608
8	13	12	1.7923040941768
8	14	13	2.0305681317735
8	15	14	1.9844951865828
8	16	15	2.2187318873595
8	17	16	2.1416854339172
8	18	17	1.8896148890835
8	19	18	2.0499339673421
8	20	19	0.973
8	21	20	0.973
8	22	21	3.236958348016
8	23	22	7.0694109561587
8	24	23	7.2974163894139
8	25	24	8.7433911631671
8	26	25	1.9831721788576
8	27	26	2.116835898497
8	28	27	1.9244585801898
8	29	28	1.8775583559564
8	30	29	1.9545657515643
8	31	30	2.0931646705581
8	32	31	2.2926746988581
8	33	32	1.993865292131
8	34	33	1.6968396252803
8	35	34	2.4149847823944
8	36	35	1.6983583398882
8	37	36	1.9906198998388
8	38	37	2.3442713071536
8	39	38	1.7018725964397
8	40	39	2.0993392475273
8	41	40	1.9585122345881
8	42	41	2.4691677522194
8	43	42	1.9170802753567
8	44	43	1.8345014514108
8	45	44	2.0838538984303
8	46	45	2.0539801513469
8	47	46	2.0668686152862
8	48	47	1.9813596940184
8	49	48	2.1840996762636
8	50	49	2.0987681125428
8	51	50	1.8592856847688
8	52	51	2.0145873760113
8	53	52	2.0950692067684
8	54	53	1.8080099866508
8	55	54	1.9870007069688
8	56	55	2.2415869227426
8	57	56	2.0614496349521
8	58	57	2.0646020593826
8	59	58	1.8102089718445
8	60	59	2.1453880261281
8	61	60	1.9826536733129
8	62	61	2.0673636130683
8	63	62	2.0538817544551
8	64	63	2.1528270365066
8	65	64	2.0265038417738
8	66	65	1.9764402783138
8	67	66	2.2347131127692
8	68	67	2.0405446651404
8	69	68	1.6487905152147
8	70	69	2.0126291187762
8	71	70	2.0466796925005
8	72	71	2.3433989621326
8	73	72	0.973
8	74	73	0.973
8	76	74	0.973
8	77	75	0.973
8	78	76	0.973
8	79	77	0.973
8	80	78	0.973
8	81	79	0.973
8	82	80	0.973
8	83	81	0.973
8	84	82	0.973
8	85	83	0.973
8	86	84	0.973
8	203	85	0.973
8	204	86	0.973
11	5	4	2414.8767583254
11	6	5	2411.8725636174
11	7	6	2407.2970525089
11	8	7	2402.4626210862
11	9	8	2396.3056860371
11	10	9	2388.8743536096
11	11	10	2380.097228827
11	12	11	2370.3507264333
11	13	12	2360.5878487076
11	14	13	2350.7849318213
11	15	14	2341.2418729237
11	16	15	2334.6305580324
11	17	16	2337.3467480277
11	18	17	2348.0519014368
11	19	18	2358.3998493504
11	20	19	2371.2788021446
11	21	20	2385.0887639745
11	22	21	2398.4985461925
11	23	22	2411.2485283293
11	24	23	2420.6905829484
11	25	24	2427.6440450998
11	26	25	2431.3031180431
11	27	26	2432.9057471878
11	28	27	2434.8184996871
11	29	28	2436.9106889558
11	30	29	2438.5031214217
11	31	30	2439.359314087
11	32	31	2440.3695716034
11	33	32	2441.3815056744
11	34	33	2442.392207776
11	35	34	2443.4019859718
11	36	35	2444.4122552489
11	37	36	2445.4251439738
11	38	37	2446.4367595227
11	39	38	2447.4467230743
11	40	39	2448.4574488286
11	41	40	2449.467800329
11	42	41	2450.4780716181
11	43	42	2449.7461704329
11	44	43	2448.6331060936
11	45	44	2447.5209445587
11	46	45	2446.407523851
11	47	46	2445.2946584851
11	48	47	2444.1824360332
11	49	48	2443.0706190476
11	50	49	2441.9568028547
11	51	50	2440.8451110823
11	52	51	2439.8503503047
11	53	52	2438.9091742415
11	54	53	2438.2310626655
11	55	54	2433.9050446447
11	56	55	2424.21615465
11	57	56	2411.3460908785
11	58	57	2397.4706148925
11	59	58	2383.5587488873
11	60	59	2369.633660475
11	61	60	2355.7048479554
11	62	61	2341.7904321874
11	63	62	2327.8638711022
11	64	63	2313.9188814831
11	65	64	2299.9979078089
11	66	65	2286.0826278217
11	67	66	2272.1551827891
11	68	67	2258.2333055256
11	69	68	2244.3319301521
11	70	69	2230.5388995206
11	71	70	2216.7493601282
11	72	71	2203.5089906314
11	73	72	2190.3028214657
11	74	73	2177.2175397498
11	76	74	2166.0508945999
11	77	75	2157.6231104804
11	78	76	2151.7712981963
11	79	77	2148.1230201763
11	80	78	2146.1290875688
11	81	79	2145.2101491778
11	82	80	2144.8407904832
11	83	81	2144.7060883162
11	84	82	2144.6576023959
11	85	83	2144.6402772203
11	86	84	2144.6340603527
11	203	85	2144.6318573126
11	204	86	2144.6310625414
12	5	4	1578.4506684253
12	6	5	1579.5537930429
12	7	6	1581.4165868293
12	8	7	1586.3131998433
12	9	8	1592.5493268352
12	10	9	1600.0762428036
12	11	10	1608.9662610246
12	12	11	1618.8381252186
12	13	12	1628.7265753681
12	14	13	1638.6555796713
12	15	14	1648.8046840783
12	16	15	1660.6325348346
12	17	16	1673.301875555
12	18	17	1682.2138796467
12	19	18	1691.5459182626
12	20	19	1695.5099147679
12	21	20	1697.3308411958
12	22	21	1698.6335971011
12	23	22	1699.8391930545
12	24	23	1700.7320023719
12	25	24	1701.2941834759
12	26	25	1708.3978488175
12	27	26	1718.9439634858
12	28	27	1731.5308475178
12	29	28	1745.2985167308
12	30	29	1759.1189484736
12	31	30	1773.033284259
12	32	31	1786.9263172904
12	33	32	1800.8424062571
12	34	33	1814.7415532097
12	35	34	1828.6279946407
12	36	35	1842.5211894047
12	37	36	1856.4504067414
12	38	37	1870.362115399
12	39	38	1884.2511058366
12	40	39	1898.150578063
12	41	40	1912.0449035605
12	42	41	1925.9381259941
12	43	42	1939.8457802581
12	44	43	1953.7382693188
12	45	44	1967.6194902081
12	46	45	1981.5164272105
12	47	46	1995.4064328251
12	48	47	2009.2884140396
12	49	48	2023.165334505
12	50	49	2037.0672076773
12	51	50	2050.942565321
12	52	51	2064.8483957723
12	53	52	2078.754013543
12	54	53	2092.6537938379
12	55	54	2105.6893007364
12	56	55	2115.3934075218
12	57	56	2120.5034639826
12	58	57	2120.5707901428
12	59	58	2120.100904949
12	60	59	2119.6305731572
12	61	60	2119.160115581
12	62	61	2118.6901442679
12	63	62	2118.2197627351
12	64	63	2117.748758764
12	65	64	2117.2785659507
12	66	65	2116.8085654471
12	67	66	2116.3381540589
12	68	67	2115.8679307271
12	69	68	2115.0734324455
12	70	69	2113.117474094
12	71	70	2111.1620108271
12	72	71	2106.8134566117
12	73	72	2102.3345389208
12	74	73	2097.6439806372
12	76	74	2091.0703529529
12	77	75	2086.1090495121
12	78	76	2082.6641800171
12	79	77	2080.516496351
12	80	78	2079.3426997084
12	81	79	2078.8017351869
12	82	80	2078.584299556
12	83	81	2078.5050025163
12	84	82	2078.4764596215
12	85	83	2078.4662605636
12	86	84	2078.4626007918
12	203	85	2078.4613038972
12	204	86	2078.4608360277
13	6	5	4.0332649588119
13	7	6	5.8265110515686
13	8	7	7.7852127750962
13	9	8	9.5658873894228
13	10	9	11.450149483434
13	11	10	13.391487500134
13	12	11	13.949883621705
13	13	12	13.87602620427
13	14	13	13.885232782268
13	15	14	13.987373048679
13	16	15	13.890608048609
13	17	16	13.887004709987
13	18	17	13.926980708602
13	19	18	13.89086526999
13	20	19	13.965056618985
13	21	20	13.946692067499
13	22	21	13.097137451398
13	23	22	11.939132677032
13	24	23	7.4783001788439
13	25	24	7.8592269216425
13	26	25	9.5749213322898
13	27	26	11.610942506126
13	28	27	13.581243869506
13	29	28	13.973211987913
13	30	29	13.918392209036
13	31	30	13.928662607018
13	32	31	13.985277111761
13	33	32	13.95532245066
13	34	33	13.938708755139
13	35	34	13.908545650935
13	36	35	13.927478809105
13	37	36	13.897819017794
13	38	37	13.989504252097
13	39	38	13.94374062394
13	40	39	13.903882643976
13	41	40	13.969130632835
13	42	41	13.884234787642
13	43	42	13.881978327318
13	44	43	13.927070145076
13	45	44	13.922745489741
13	46	45	13.95273740395
13	47	46	13.968270483359
13	48	47	13.918685564972
13	49	48	13.921468284922
13	50	49	13.897015957548
13	51	50	13.964752228069
13	52	51	13.91147568828
13	53	52	13.974545761354
13	54	53	13.965476403411
13	55	54	13.989670229855
13	56	55	13.951804798429
13	57	56	13.892850009208
13	58	57	13.958218119799
13	59	58	13.933717581006
13	60	59	13.982012811573
13	61	60	13.954506225567
13	62	61	13.954468280503
13	63	62	13.914126337939
13	64	63	13.998578815588
13	65	64	13.932968401979
13	66	65	13.954534002345
13	67	66	13.957377178506
13	68	67	13.932528918332
13	69	68	13.977439161665
13	70	69	13.873707558191
13	71	70	13.945779315263
13	72	71	13.942668949808
13	73	72	13.91575948562
13	74	73	13.907857767178
13	76	74	11.509649644586
13	77	75	8.354934886828
13	78	76	5.5437759062738
13	79	77	3.307407476074
13	80	78	1.6348540751313
13	81	79	0.71722348573033
13	82	80	0.25744643425691
13	83	81	0.096330583691781
13	84	82	0.033582834564042
13	85	83	0.012074018451278
13	86	84	0.0044146382852531
13	203	85	0.0015233755870791
13	204	86	0.00054909975708676
14	7	6	1.7932460927567
14	8	7	1.9587017235276
14	9	8	1.7806746143266
14	10	9	1.8842620940111
14	11	10	1.9413380167005
14	12	11	0.5583961215709
14	13	12	-0.073857417434921
14	14	13	0.0092065779981212
14	15	14	0.10214026641101
14	16	15	-0.096765000070445
14	17	16	-0.0036033386224883
14	18	17	0.039975998615846
14	19	18	-0.036115438612178
14	20	19	0.074191348995083
14	21	20	-0.018364551486448
14	22	21	-0.84955461610103
14	23	22	-1.1580047743662
14	24	23	-4.4608324981877
14	25	24	0.38092674279862
14	26	25	1.7156944106473
14	27	26	2.0360211738362
14	28	27	1.9703013633797
14	29	28	0.39196811840698
14	30	29	-0.054819778876846
14	31	30	0.010270397982096
14	32	31	0.056614504742901
14	33	32	-0.029954661100637
14	34	33	-0.016613695521373
14	35	34	-0.030163104203529
14	36	35	0.018933158169965
14	37	36	-0.029659791311714
14	38	37	0.091685234303586
14	39	38	-0.045763628156855
14	40	39	-0.039857979963999
14	41	40	0.065247988859191
14	42	41	-0.08489584519295
14	43	42	-0.0022564603248618
14	44	43	0.045091817758511
14	45	44	-0.0043246553349299
14	46	45	0.029991914208512
14	47	46	0.015533079409506
14	48	47	-0.0495849183877
14	49	48	0.0027827199501917
14	50	49	-0.024452327373437
14	51	50	0.067736270520836
14	52	51	-0.053276539789513
14	53	52	0.063070073074195
14	54	53	-0.0090693579427903
14	55	54	0.024193826443517
14	56	55	-0.037865431425162
14	57	56	-0.058954789221753
14	58	57	0.065368110591081
14	59	58	-0.024500538792926
14	60	59	0.048295230567454
14	61	60	-0.027506586005911
14	62	61	-3.7945064249811e-05
14	63	62	-0.040341942564119
14	64	63	0.08445247764932
14	65	64	-0.065610413609539
14	66	65	0.021565600365866
14	67	66	0.0028431761614058
14	68	67	-0.024848260174041
14	69	68	0.044910243332852
14	70	69	-0.10373160347343
14	71	70	0.072071757072118
14	72	71	-0.0031103654555054
14	73	72	-0.02690946418792
14	74	73	-0.0079017184418628
14	76	74	-2.3982081225927
14	77	75	-3.1547147577576
14	78	76	-2.8111589805542
14	79	77	-2.2363684301998
14	80	78	-1.6725534009427
14	81	79	-0.91763058940095
14	82	80	-0.45977705147342
14	83	81	-0.16111585056513
14	84	82	-0.062747749127738
14	85	83	-0.021508816112765
14	86	84	-0.0076593801660245
14	203	85	-0.002891262698174
14	204	86	-0.00097427582999232
15	7	6	3.9274001426868
15	8	7	5.2041356246368
15	9	8	5.7574507674447
15	10	9	7.0006276784153
15	11	10	8.2432295261252
15	12	11	3.9110016848773
15	13	12	1.7792042638201
15	14	13	2.0579365757541
15	15	14	2.3818636967155
15	16	15	1.7037407999188
15	17	16	2.0152488537881
15	18	17	2.1655550639215
15	19	18	1.906797412239
15	20	19	2.2849654495652
15	21	20	1.9716653983805
15	22	21	0.973
15	23	22	0.973
15	24	23	0.973
15	25	24	2.2554772362628
15	26	25	5.6120472675651
15	27	26	7.5119842129131
15	28	27	8.4455276517466
15	29	28	3.3560730035355
15	30	29	1.8466200733259
15	31	30	2.0660268329645
15	32	31	2.2281549844786
15	33	32	1.9335288120447
15	34	33	1.9767670407741
15	35	34	1.9283950769156
15	36	35	2.0949799016024
15	37	36	1.9290667558988
15	38	37	2.3468857079218
15	39	38	1.8793040227889
15	40	39	1.8954681876561
15	41	40	2.2553467174174
15	42	41	1.7429567241042
15	43	42	2.0192482635441
15	44	43	2.1827359052182
15	45	44	2.0164367628106
15	46	45	2.1348602115454
15	47	46	2.0878872407227
15	48	47	1.8642059318509
15	49	48	2.0401536442479
15	50	49	1.9464315106901
15	51	50	2.2632042711189
15	52	51	1.851180617826
15	53	52	2.2486511283506
15	54	53	2.0047870143605
15	55	54	2.1193583924862
15	56	55	1.9065956504161
15	57	56	1.8305118457369
15	58	57	2.2544630998412
15	59	58	1.9497933768092
15	60	59	2.199742909699
15	61	60	1.9416842431598
15	62	61	2.0340583936544
15	63	62	1.8947902862501
15	64	63	2.3236156337703
15	65	64	1.8116807487081
15	66	65	2.1067187558746
15	67	66	2.0440470145686
15	68	67	1.9485115452067
15	69	68	2.1878187851485
15	70	69	1.6791237400594
15	71	70	2.2755265645048
15	72	71	2.0225291815531
15	73	72	1.9399893034582
15	74	73	2.0029455902709
15	76	74	0.973
15	77	75	0.973
15	78	76	0.973
15	79	77	0.973
15	80	78	0.973
15	81	79	0.973
15	82	80	0.973
15	83	81	0.973
15	84	82	1.1111121928442
15	85	83	1.1105198636326
15	86	84	1.1102048131311
15	203	85	1.1100724261592
15	204	86	1.1100263596434
18	8	7	2414.8848622198
18	9	8	2412.0691307599
18	10	9	2407.3819784434
18	11	10	2402.4639103656
18	12	11	2396.2016479742
18	13	12	2388.5021761758
18	14	13	2379.5347220144
18	15	14	2369.7521497252
18	16	15	2359.9648396304
18	17	16	2350.1637192596
18	18	17	2340.717056727
18	19	18	2334.4889366638
18	20	19	2338.0188398167
18	21	20	2348.6970945761
18	22	21	2359.0578910074
18	23	22	2372.1753142256
18	24	23	2385.9847009928
18	25	24	2399.0560799135
18	26	25	2411.469456295
18	27	26	2420.8240344936
18	28	27	2428.2511095385
18	29	28	2431.5096723901
18	30	29	2433.2168502312
18	31	30	2435.2011956087
18	32	31	2437.29147981
18	33	32	2438.672857787
18	34	33	2439.5458305131
18	35	34	2440.5569901068
18	36	35	2441.5662171456
18	37	36	2442.5764760413
18	38	37	2443.5864360537
18	39	38	2444.5969193554
18	40	39	2445.6077267987
18	41	40	2446.6171177449
18	42	41	2447.6285385494
18	43	42	2448.6389437378
18	44	43	2449.6489775468
18	45	44	2450.659299592
18	46	45	2449.5461587089
18	47	46	2448.4337074455
18	48	47	2447.3207898499
18	49	48	2446.207873206
18	50	49	2445.0940501215
18	51	50	2443.9833638043
18	52	51	2442.8694501355
18	53	52	2441.7571938549
18	54	53	2440.6460889142
18	55	54	2439.6824932018
18	56	55	2438.741084579
18	57	56	2437.8178922307
18	58	57	2432.628875918
18	59	58	2422.099758557
18	60	59	2408.9617932498
18	61	60	2395.0275024913
18	62	61	2381.1194986589
18	63	62	2367.2108877165
18	64	63	2353.2913366285
18	65	64	2339.3363710896
18	66	65	2325.3913249692
18	67	66	2311.4476897647
18	68	67	2297.4983647275
18	69	68	2283.5801531249
18	70	69	2269.6389171832
18	71	70	2255.7127677456
18	72	71	2241.8359768615
18	73	72	2228.0496562888
18	74	73	2214.3204117303
18	76	74	2201.130388199
18	77	75	2187.9466372953
18	78	76	2175.8540693277
18	79	77	2166.8951848735
18	80	78	2160.0560415246
18	81	79	2155.1967882412
18	82	80	2152.0658747323
18	83	81	2150.332577554
18	84	82	2149.5013543733
18	85	83	2149.1536897024
18	86	84	2149.0206824628
18	203	85	2148.970440554
18	204	86	2148.9516145713
19	8	7	1578.4476927174
19	9	8	1579.4816146148
19	10	9	1581.3305685576
19	11	10	1586.311893981
19	12	11	1592.6547030602
19	13	12	1600.4532072712
19	14	13	1609.5360029312
19	15	14	1619.4444009606
19	16	15	1629.3575977338
19	17	16	1639.2847824143
19	18	17	1649.4765304932
19	19	18	1661.4854336744
19	20	19	1673.8446300924
19	21	20	1682.7957309801
19	22	21	1692.1393567109
19	23	22	1695.6439150097
19	24	23	1697.4374776948
19	25	24	1698.6863156371
19	26	25	1699.860083269
19	27	26	1700.7446211064
19	28	27	1701.4003788568
19	29	28	1709.757081449
19	30	29	1720.9911797
19	31	30	1734.0491812732
19	32	31	1747.8043141738
19	33	32	1761.6824669717
19	34	33	1775.5982529195
19	35	34	1789.5036912933
19	36	35	1803.3825532272
19	37	36	1817.2756052278
19	38	37	1831.1645469936
19	39	38	1845.0606850199
19	40	39	1858.9612806309
19	41	40	1872.8423966132
19	42	41	1886.7514271513
19	43	42	1900.646490965
19	44	43	1914.536447579
19	45	44	1928.4487420022
19	46	45	1942.3421864314
19	47	46	1956.2270235084
19	48	47	1970.117681019
19	49	48	1984.0083266487
19	50	49	1997.9102858361
19	51	50	2011.7730940934
19	52	51	2025.6761838896
19	53	52	2039.5585873295
19	54	53	2053.4266205495
19	55	54	2067.3284383547
19	56	55	2081.2374921273
19	57	56	2095.1151711773
19	58	57	2107.8121583294
19	59	58	2116.6019557538
19	60	59	2120.9589145361
19	61	60	2120.4882719275
19	62	61	2120.0185171831
19	63	62	2119.548741932
19	64	63	2119.0785971684
19	65	64	2118.6072562514
19	66	65	2118.1362503711
19	67	66	2117.6652921457
19	68	67	2117.1941417418
19	69	68	2116.724042221
19	70	69	2116.2531650327
19	71	70	2115.7827974036
19	72	71	2114.7194869779
19	73	72	2112.7644801643
19	74	73	2110.4801872596
19	76	74	2106.0067454157
19	77	75	2101.5354309557
19	78	76	2096.841327128
19	79	77	2091.5673733056
19	80	78	2087.5412776032
19	81	79	2084.6807119204
19	82	80	2082.8375925729
19	83	81	2081.8172278916
19	84	82	2081.3278999301
19	85	83	2081.1232352275
19	86	84	2081.0449359659
19	203	85	2081.0153593477
19	204	86	2081.0042767888
20	9	8	3.930963162637
20	10	9	5.9263112237273
20	11	10	7.8381960794392
20	12	11	9.790430662247
20	13	12	11.728100012452
20	14	13	13.629514704516
20	15	14	13.941568216505
20	16	15	13.881279769889
20	17	16	13.897868440901
20	18	17	13.925429278756
20	19	18	13.988464023101
20	20	19	13.968606978769
20	21	20	13.918509052745
20	22	21	13.924308654484
20	23	22	13.951645852409
20	24	23	13.87926841794
20	25	24	12.793519969494
20	26	25	11.84351296104
20	27	26	7.4038563960913
20	28	27	8.4727548549238
20	29	28	10.367830629347
20	30	29	12.18869854925
20	31	30	13.961659159465
20	32	31	13.954832898835
20	33	32	13.985199820679
20	34	33	13.894128147855
20	35	34	13.93747920732
20	36	35	13.922516686122
20	37	36	13.936551663636
20	38	37	13.899921349036
20	39	38	13.905686459227
20	40	39	13.974518650502
20	41	40	13.926188751743
20	42	41	13.91506882193
20	43	42	13.902084701743
20	44	43	13.906688486487
20	45	44	13.974945872892
20	46	45	13.897515056985
20	47	46	13.921723058985
20	48	47	13.971591069859
20	49	48	13.925448836959
20	50	49	13.871581884674
20	51	50	13.876423048137
20	52	51	13.873938687814
20	53	52	13.902598275633
20	54	53	13.87539361449
20	55	54	13.972987024514
20	56	55	13.957628285089
20	57	56	13.950985880545
20	58	57	13.943263569523
20	59	58	13.891897078918
20	60	59	13.874182712052
20	61	60	13.982985400616
20	62	61	13.927164004399
20	63	62	13.899862960158
20	64	63	13.960168966714
20	65	64	13.961850514959
20	66	65	13.962242161995
20	67	66	13.925234322341
20	68	67	13.991972472956
20	69	68	13.975208927125
20	70	69	13.946616810667
20	71	70	13.894927249895
20	72	71	13.997537077854
20	73	72	13.937148143742
20	74	73	13.949254455173
20	76	74	13.997392567724
20	77	75	13.892845066143
20	78	76	11.787824280837
20	79	77	9.2477227385416
20	80	78	6.86540096584
20	81	79	4.7046209588023
20	82	80	2.8641315859363
20	83	81	1.435280022115
20	84	82	0.62780889662581
20	85	83	0.25782569870556
20	86	84	0.096787157257653
20	203	85	0.035636258771308
20	204	86	0.013565543513394
21	10	9	1.9953480610903
21	11	10	1.9118848557118
21	12	11	1.9522345828079
21	13	12	1.9376693502045
21	14	13	1.9014146920643
21	15	14	0.31205351198868
21	16	15	-0.060288446615449
21	17	16	0.016588671011849
21	18	17	0.027560837855562
21	19	18	0.063034744344186
21	20	19	-0.019857044331729
21	21	20	-0.050097926023881
21	22	21	0.0057996017392714
21	23	22	0.027337197924499
21	24	23	-0.072377434468363
21	25	24	-1.0857484484466
21	26	25	-0.95000700845353
21	27	26	-4.439656564949
21	28	27	1.0688984588324
21	29	28	1.8950757744233
21	30	29	1.8208679199032
21	31	30	1.7729606102145
21	32	31	-0.0068262606300422
21	33	32	0.03036692184396
21	34	33	-0.091071672823745
21	35	34	0.043351059465204
21	36	35	-0.01496252119774
21	37	36	0.014034977513365
21	38	37	-0.036630314600188
21	39	38	0.0057651101914225
21	40	39	0.068832191275433
21	41	40	-0.048329898759256
21	42	41	-0.01111992981285
21	43	42	-0.012984120186884
21	44	43	0.0046037847432316
21	45	44	0.068257386405021
21	46	45	-0.077430815906265
21	47	46	0.02420800199965
21	48	47	0.049868010873906
21	49	48	-0.046142232900019
21	50	49	-0.053866952285171
21	51	50	0.0048411634634249
21	52	51	-0.0024843603232867
21	53	52	0.028659587819128
21	54	53	-0.027204661143477
21	55	54	0.09759341002442
21	56	55	-0.015358739425428
21	57	56	-0.0066424045432356
21	58	57	-0.007722311022226
21	59	58	-0.051366490605288
21	60	59	-0.017714366866276
21	61	60	0.10880268856417
21	62	61	-0.055821396217215
21	63	62	-0.027301044240593
21	64	63	0.06030600655591
21	65	64	0.0016815482452515
21	66	65	0.00039164703572148
21	67	66	-0.037007839654107
21	68	67	0.066738150615711
21	69	68	-0.0167635458312
21	70	69	-0.028592116457874
21	71	70	-0.051689560771921
21	72	71	0.10260982795851
21	73	72	-0.060388934111689
21	74	73	0.01210631143069
21	76	74	0.048138112551532
21	77	75	-0.10454750158125
21	78	76	-2.1050207853061
21	79	77	-2.5401015422956
21	80	78	-2.3823217727016
21	81	79	-2.1607800070377
21	82	80	-1.840489372866
21	83	81	-1.4288515638212
21	84	82	-0.80747112548923
21	85	83	-0.36998319792025
21	86	84	-0.1610385414479
21	203	85	-0.061150898486345
21	204	86	-0.022070715257914
22	10	9	4.2649508166984
22	11	10	5.1441608835298
22	12	11	6.2752675611406
22	13	12	7.3015557220543
22	14	13	8.2469806235914
22	15	14	3.0813423760871
22	16	15	1.825038103975
22	17	16	2.0839753981971
22	18	17	2.1237162576214
22	19	18	2.2501690272635
22	20	19	1.9687844028223
22	21	20	1.8624692368163
22	22	21	2.0505690853877
22	23	22	2.1258147014109
22	24	23	1.7844264067381
22	25	24	0.973
22	26	25	0.973
22	27	26	0.973
22	28	27	3.7575341079103
22	29	28	6.4482222684255
22	30	29	7.2140195323343
22	31	30	8.0005078452345
22	32	31	2.0112657729674
22	33	32	2.1396802881933
22	34	33	1.7230808185304
22	35	34	2.1780640158967
22	36	35	1.980720158986
22	37	36	2.0794954629949
22	38	37	1.9059152732614
22	39	38	2.0485298427513
22	40	39	2.2680539427787
22	41	40	1.8690933945628
22	42	41	1.9928741031296
22	43	42	1.9853406570184
22	44	43	2.0447410785649
22	45	44	2.2661688405632
22	46	45	1.7690384486571
22	47	46	2.1120645090544
22	48	47	2.2038504354464
22	49	48	1.8763684319447
22	50	49	1.8456610488087
22	51	50	2.0424227277346
22	52	51	2.0176736696174
22	53	52	2.1249196677245
22	54	53	1.9351566644326
22	55	54	2.3647248781457
22	56	55	1.9828454643184
22	57	56	2.0114971183472
22	58	57	2.007091813677
22	59	58	1.8558336695686
22	60	59	1.9667740746073
22	61	60	2.4037578966905
22	62	61	1.844036691971
22	63	62	1.9371616602798
22	64	63	2.2376623461065
22	65	64	2.0405988072341
22	66	65	2.0362986285583
22	67	66	1.9070037954822
22	68	67	2.2630700095878
22	69	68	1.9798474403324
22	70	69	1.9372818212763
22	71	70	1.8550225742329
22	72	71	2.3847397299678
22	73	72	1.8295794064806
22	74	73	2.0743518631084
22	76	74	2.2009680002035
22	77	75	1.6778590032699
22	78	76	0.973
22	79	77	0.973
22	80	78	0.973
22	81	79	0.973
22	82	80	0.973
22	83	81	0.973
22	84	82	0.973
22	85	83	0.973
22	86	84	0.973
22	203	85	1.1111939126964
22	204	86	1.1105822463489
25	11	10	2414.8652957816
25	12	11	2411.9402292009
25	13	12	2407.1594214574
25	14	13	2402.0350675649
25	15	14	2395.5354035812
25	16	15	2387.5598131203
25	17	16	2378.2983909701
25	18	17	2368.4972038758
25	19	18	2358.719633554
25	20	19	2348.9248444787
25	21	20	2339.614370346
25	22	21	2334.1997176057
25	23	22	2339.4193692133
25	24	23	2350.023330241
25	25	24	2360.3662725991
25	26	25	2373.90233667
25	27	26	2387.7152259793
25	28	27	2400.5914429313
25	29	28	2412.9398871803
25	30	29	2421.7139854309
25	31	30	2429.0882121673
25	32	31	2431.6639768599
25	33	32	2433.4302155024
25	34	33	2435.4611475593
25	35	34	2437.5533698815
25	36	35	2438.7684759141
25	37	36	2439.671540139
25	38	37	2440.6813741141
25	39	38	2441.6917844916
25	40	39	2442.7022041357
25	41	40	2443.7124593587
25	42	41	2444.7229332504
25	43	42	2445.7337078364
25	44	43	2446.7459111849
25	45	44	2447.757486716
25	46	45	2448.7683903823
25	47	46	2449.7777371067
25	48	47	2450.5176811377
25	49	48	2449.4057673637
25	50	49	2448.2921364765
25	51	50	2447.1808208324
25	52	51	2446.0691226661
25	53	52	2444.9566500478
25	54	53	2443.8447802094
25	55	54	2442.731477023
25	56	55	2441.6197022425
25	57	56	2440.5080080784
25	58	57	2439.5670555097
25	59	58	2438.6556009268
25	60	59	2437.5062560235
25	61	60	2431.5722499692
25	62	61	2420.527699944
25	63	62	2407.2382113171
25	64	63	2393.3269784888
25	65	64	2379.3955530388
25	66	65	2365.4745847809
25	67	66	2351.529199079
25	68	67	2337.6079130118
25	69	68	2323.6725767179
25	70	69	2309.7385225614
25	71	70	2295.8080973643
25	72	71	2281.8952010303
25	73	72	2267.9654732505
25	74	73	2254.0466482575
25	76	74	2240.1839215464
25	77	75	2226.3952670011
25	78	76	2212.7433891206
25	79	77	2199.5532363574
25	80	78	2186.6275330838
25	81	79	2175.9886347088
25	82	80	2168.1516067662
25	83	81	2162.2726257491
25	84	82	2158.2011129982
25	85	83	2155.6801527158
25	86	84	2154.3186951779
25	203	85	2153.678918281
25	204	86	2153.4155323968
26	11	10	1578.4548774119
26	12	11	1579.5289465943
26	13	12	1581.5559881236
26	14	13	1586.7462526578
26	15	14	1593.3295168448
26	16	15	1601.4076912217
26	17	16	1610.7882359559
26	18	17	1620.7154882178
26	19	18	1630.6188199436
26	20	19	1640.5395918936
26	21	20	1650.8881406859
26	22	21	1663.2272230769
26	23	22	1674.9756418047
26	24	23	1683.991763521
26	25	24	1693.3192880014
26	26	25	1695.9020503219
26	27	26	1697.6139621651
26	28	27	1698.8314944636
26	29	28	1699.9991223291
26	30	29	1700.8287719106
26	31	30	1701.8119543158
26	32	31	1710.77248332
26	33	32	1722.3952316754
26	34	33	1735.7597972872
26	35	34	1749.5276840087
26	36	35	1763.4065813264
26	37	36	1777.3270081691
26	38	37	1791.2142166747
26	39	38	1805.1093518483
26	40	39	1819.0046144547
26	41	40	1832.8976159496
26	42	41	1846.7936245678
26	43	42	1860.6937683271
26	44	43	1874.6135603888
26	45	44	1888.5247187214
26	46	45	1902.4266375881
26	47	46	1916.3071454344
26	48	47	1930.2163243052
26	49	48	1944.0944528161
26	50	49	1957.9940131316
26	51	50	1971.8646762054
26	52	51	1985.7401136523
26	53	52	1999.6252172682
26	54	53	2013.5027974071
26	55	54	2027.3982675895
26	56	55	2041.2746612821
26	57	56	2055.1500487765
26	58	57	2069.0339985425
26	59	58	2082.9232102502
26	60	59	2096.7668430749
26	61	60	2109.1502521159
26	62	61	2117.3046830418
26	63	62	2120.90069908
26	64	63	2120.4308352731
26	65	64	2119.9602894429
26	66	65	2119.4900968131
26	67	66	2119.0190794626
26	68	67	2118.5488760993
26	69	68	2118.0781981768
26	70	69	2117.6075635599
26	71	70	2117.1370515134
26	72	71	2116.6671315199
26	73	72	2116.1966430303
26	74	73	2115.7265227912
26	76	74	2114.4852127647
26	77	75	2112.5298749758
26	78	76	2109.945334618
26	79	77	2105.4718489451
26	80	78	2101.0880522262
26	81	79	2096.9205436436
26	82	80	2092.3070090357
26	83	81	2088.846145737
26	84	82	2086.4493104676
26	85	83	2084.9652609546
26	86	84	2084.1637923988
26	203	85	2083.7871658411
26	204	86	2083.6321147298
27	12	11	4.0076977833542
27	13	12	6.1677344774264
27	14	13	8.1549676716625
27	15	14	10.178332106699
27	16	15	12.262859039094
27	17	16	13.909239285488
27	18	17	13.972104677679
27	19	18	13.964405047395
27	20	19	13.904001857305
27	21	20	13.959390929798
27	22	21	13.878038117993
27	23	22	13.946876353603
27	24	23	13.944667257406
27	25	24	13.919344021892
27	26	25	13.927560248445
27	27	26	13.871213583788
27	28	27	12.691334807668
27	29	28	11.253789109264
27	30	29	6.8021452137647
27	31	30	8.5806848426844
27	32	31	10.511503565412
27	33	32	12.634297992723
27	34	33	13.965718502484
27	35	34	13.984844662666
27	36	35	13.956789441942
27	37	36	13.956542154332
27	38	37	13.917345386401
27	39	38	13.978046209081
27	40	39	13.982312166321
27	41	40	13.915473192113
27	42	41	13.879970237834
27	43	42	13.897895857247
27	44	43	13.999869057706
27	45	44	13.978634591533
27	46	45	13.942230677728
27	47	46	13.955766034983
27	48	47	13.950300372976
27	49	48	13.917481608128
27	50	49	13.942320762996
27	51	50	13.893100212866
27	52	51	13.91633811252
27	53	52	13.928179549885
27	54	53	13.968941585214
27	55	54	13.947614409933
27	56	55	13.993828555658
27	57	56	13.915365449623
27	58	57	13.876728287677
27	59	58	13.918426910553
27	60	59	13.974088552413
27	61	60	13.92781890474
27	62	61	13.871840020602
27	63	62	13.950818891171
27	64	63	13.896373478309
27	65	64	13.98123223257
27	66	65	13.934642261642
27	67	66	13.995758003502
27	68	67	13.879077432866
27	69	68	13.899420192223
27	70	69	13.964884717481
27	71	70	13.997399434138
27	72	71	13.963054893557
27	73	72	13.99507131309
27	74	73	13.959758597296
27	76	74	13.999156328384
27	77	75	13.969890658425
27	78	76	13.980162032277
27	79	77	13.896995161234
27	80	78	12.895918457595
27	81	79	10.316482094486
27	82	80	8.1005376777642
27	83	81	5.8820015731492
27	84	82	3.8731803985188
27	85	83	2.2660461003021
27	86	84	1.1103220699793
27	203	85	0.49973008570276
27	204	86	0.19564597656583
28	13	12	2.1600366940722
28	14	13	1.9872331942362
28	15	14	2.0233644350362
28	16	15	2.0845269323955
28	17	16	1.6463802463939
28	18	17	0.062865392190869
28	19	18	-0.0076996302837493
28	20	19	-0.060403190089856
28	21	20	0.055389072492252
28	22	21	-0.081352811804972
28	23	22	0.068838235610166
28	24	23	-0.0022090961970385
28	25	24	-0.025323235513643
28	26	25	0.0082162265526122
28	27	26	-0.056346664656886
28	28	27	-1.1798787761197
28	29	28	-1.4375456984038
28	30	29	-4.4516438954996
28	31	30	1.7785396289197
28	32	31	1.9308187227277
28	33	32	2.1227944273106
28	34	33	1.3314205097611
28	35	34	0.01912616018206
28	36	35	-0.028055220723617
28	37	36	-0.00024728761054682
28	38	37	-0.039196767930406
28	39	38	0.060700822679792
28	40	39	0.0042659572395483
28	41	40	-0.06683897420764
28	42	41	-0.035502954279073
28	43	42	0.017925619413145
28	44	43	0.10197320045903
28	45	44	-0.021234466172753
28	46	45	-0.036403913805263
28	47	46	0.013535357255023
28	48	47	-0.0054656620067544
28	49	48	-0.032818764848635
28	50	49	0.024839154868388
28	51	50	-0.049220550130123
28	52	51	0.023237899653614
28	53	52	0.011841437364929
28	54	53	0.040762035329827
28	55	54	-0.021327175281478
28	56	55	0.046214145724662
28	57	56	-0.078463106034324
28	58	57	-0.038637161946388
28	59	58	0.041698622875845
28	60	59	0.055661641859915
28	61	60	-0.046269647672306
28	62	61	-0.055978884138167
28	63	62	0.078978870569262
28	64	63	-0.054445412862115
28	65	64	0.084858754260932
28	66	65	-0.046589970928617
28	67	66	0.061115741860121
28	68	67	-0.11668057063594
28	69	68	0.0203427593573
28	70	69	0.065464525257703
28	71	70	0.032514716656879
28	72	71	-0.034344540580641
28	73	72	0.032016419533175
28	74	73	-0.035312715794426
28	76	74	0.039397731088101
28	77	75	-0.029265669959132
28	78	76	0.010271373852158
28	79	77	-0.083166871042923
28	80	78	-1.0010767036393
28	81	79	-2.5794363631086
28	82	80	-2.2159444167219
28	83	81	-2.218536104615
28	84	82	-2.0088211746303
28	85	83	-1.6071342982168
28	86	84	-1.1557240303228
28	203	85	-0.61059198427652
28	204	86	-0.30408410913693
29	13	12	4.6399364442395
29	14	13	5.459099048015
29	15	14	6.6616810382017
29	16	15	8.0324172249288
29	17	16	7.5484463594625
29	18	17	2.247674957111
29	19	18	2.0092894812461
29	20	19	1.8266349661585
29	21	20	2.2210298717235
29	22	21	1.7543037306746
29	23	22	2.264789170887
29	24	23	2.0257606197441
29	25	24	1.9456524984792
29	26	25	2.059016748537
29	27	26	1.8373388380236
29	28	27	0.973
29	29	28	0.973
29	30	29	0.973
29	31	30	5.2602175796137
29	32	31	6.6156566027659
29	33	32	8.3694083781091
29	34	33	6.5165491496521
29	35	34	2.1017560319966
29	36	35	1.9400571066544
29	37	36	2.0335662245147
29	38	37	1.8989280401226
29	39	38	2.2410813776431
29	40	39	2.0514099723484
29	41	40	1.8060532207838
29	42	41	1.9078333116417
29	43	42	2.0884562634303
29	44	43	2.3828885778754
29	45	44	1.9651224554136
29	46	45	1.910615850939
29	47	46	2.0798426520326
29	48	47	2.015384407742
29	49	48	1.9203331804895
29	50	49	2.1164070517746
29	51	50	1.8631262853673
29	52	51	2.108230627045
29	53	52	2.0712498573739
29	54	53	2.1728920736305
29	55	54	1.9617970432444
29	56	55	2.1940726512002
29	57	56	1.7670612526642
29	58	57	1.8970499029483
29	59	58	2.1703787731
29	60	59	2.2236475952785
29	61	60	1.876156120652
29	62	61	1.8386234882413
29	63	62	2.2993516664104
29	64	63	1.8459222947006
29	65	64	2.3228538313892
29	66	65	1.8757004712267
29	67	66	2.2445546956586
29	68	67	1.6362226447506
29	69	68	2.096714827559
29	70	69	2.2555743425322
29	71	70	2.1482652379368
29	72	71	1.9194912088098
29	73	72	2.1463276308042
29	74	73	1.9159241804067
29	76	74	2.1716810577018
29	77	75	1.9372331757794
29	78	76	2.0714211235731
29	79	77	1.7497841862042
29	80	78	0.973
29	81	79	0.973
29	82	80	0.973
29	83	81	0.973
29	84	82	0.973
29	85	83	0.973
29	86	84	0.973
29	203	85	0.973
29	204	86	0.973
32	14	13	2414.9020294819
32	15	14	2411.9226306152
32	16	15	2407.1557433844
32	17	16	2402.1104710221
32	18	17	2395.7699587477
32	19	18	2388.0304223568
32	20	19	2379.4738079484
32	21	20	2370.893774931
32	22	21	2362.3077945379
32	23	22	2353.7435980395
32	24	23	2345.1609503828
32	25	24	2337.382531011
32	26	25	2333.9513923901
32	27	26	2339.5342791209
32	28	27	2348.8453277851
32	29	28	2357.9087556405
32	30	29	2368.8976739903
32	31	30	2380.9775286298
32	32	31	2393.1030453129
32	33	32	2405.2335576123
32	34	33	2416.5418459401
32	35	34	2423.9663700609
32	36	35	2430.570008137
32	37	36	2432.1000471369
32	38	37	2433.9002697327
32	39	38	2435.9543662666
32	40	39	2437.9596728822
32	41	40	2438.9494181712
32	42	41	2439.9070256213
32	43	42	2440.9176562928
32	44	43	2441.9269052453
32	45	44	2442.9366141059
32	46	45	2443.9464281293
32	47	46	2444.9573541252
32	48	47	2445.9691156872
32	49	48	2446.979716951
32	50	49	2447.9896090399
32	51	50	2448.9998733379
32	52	51	2450.0085675253
32	53	52	2450.2645866362
32	54	53	2449.1499465979
32	55	54	2448.0369973981
32	56	55	2446.9233345203
32	57	56	2445.8120863364
32	58	57	2444.7009855164
32	59	58	2443.5879624323
32	60	59	2442.4739204658
32	61	60	2441.3600381962
32	62	61	2440.2864050268
32	63	62	2439.3445139695
32	64	63	2438.5901630576
32	65	64	2436.8932832642
32	66	65	2429.488703159
32	67	66	2417.5025738811
32	68	67	2403.9129781366
32	69	68	2389.9861979192
32	70	69	2376.0739265668
32	71	70	2362.1500415469
32	72	71	2348.2060115275
32	73	72	2334.2734054149
32	74	73	2320.3213743683
32	76	74	2306.390282625
32	77	75	2292.4858088302
32	78	76	2278.5482186148
32	79	77	2264.6132597643
32	80	78	2250.6824459058
32	81	79	2236.8438325393
32	82	80	2223.0330148104
32	83	81	2209.5218306775
32	84	82	2196.3177326269
32	85	83	2183.693116775
32	86	84	2174.0416856013
32	203	85	2167.2818817057
32	204	86	2162.71175364
33	14	13	1578.4413889889
33	15	14	1579.5354087027
33	16	15	1581.5597135043
33	17	16	1586.6698793434
33	18	17	1593.0919447746
33	19	18	1600.9310288979
33	20	19	1609.5977004888
33	21	20	1618.2880919036
33	22	21	1626.984507191
33	23	22	1635.6588583943
33	24	23	1644.3518980779
33	25	24	1653.7452424029
33	26	25	1665.1186078088
33	27	26	1675.0684384657
33	28	27	1682.929411401
33	29	28	1691.1030376544
33	30	29	1695.1540113101
33	31	30	1696.8415124407
33	32	31	1698.123416462
33	33	32	1699.2704374064
33	34	33	1700.3397115832
33	35	34	1700.9751795586
33	36	35	1703.8619754324
33	37	36	1713.6420474732
33	38	37	1725.4884275207
33	39	38	1739.0054271705
33	40	39	1752.7795728892
33	41	40	1766.6691963989
33	42	41	1780.5653979182
33	43	42	1794.4635625677
33	44	43	1808.342725859
33	45	44	1822.2282137927
33	46	45	1836.1151479203
33	47	46	1850.0173738636
33	48	47	1863.9310904881
33	49	48	1877.8288507257
33	50	49	1891.7168584093
33	51	50	1905.6099847034
33	52	51	1919.4815188777
33	53	52	1933.3752725068
33	54	53	1947.287428339
33	55	54	1961.1784803104
33	56	55	1975.07843991
33	57	56	1988.9482609928
33	58	57	2002.8162427824
33	59	58	2016.7082169261
33	60	59	2030.6129080458
33	61	60	2044.5156059386
33	62	61	2058.405807049
33	63	62	2072.3219886608
33	64	63	2086.2172475774
33	65	64	2100.0155986995
33	66	65	2111.7128415443
33	67	66	2118.6569472738
33	68	67	2120.7883864809
33	69	68	2120.3179975469
33	70	69	2119.8480986627
33	71	70	2119.3778075166
33	72	71	2118.9068359565
33	73	72	2118.436250248
33	74	73	2117.965008446
33	76	74	2117.4944738867
33	77	75	2117.0248383721
33	78	76	2116.5540843215
33	79	77	2116.0834191469
33	80	78	2115.6128939744
33	81	79	2114.0115623279
33	82	80	2112.0530816279
33	83	81	2108.8527319925
33	84	82	2104.3745167274
33	85	83	2100.0928348433
33	86	84	2095.774405445
33	203	85	2091.7950156257
33	204	86	2089.1046533929
34	15	14	4.1202440707026
34	16	15	6.098204819389
34	17	16	7.9892263333931
34	18	17	9.9395148638858
34	19	18	11.888312638128
34	20	19	12.215156767303
34	21	20	12.204687935296
34	22	21	12.224623291104
34	23	22	12.210776680999
34	24	23	12.179672799767
34	25	24	12.160016026092
34	26	25	12.139849843977
34	27	26	12.143721937142
34	28	27	12.197962211408
34	29	28	12.182525644068
34	30	29	12.239106989266
34	31	30	12.235862109773
34	32	31	12.230306803957
34	33	32	12.179537976573
34	34	33	9.6862829881538
34	35	34	6.6424673210172
34	36	35	8.8478549035121
34	37	36	10.859035527671
34	38	37	12.909402498856
34	39	38	13.992245385351
34	40	39	13.943547738914
34	41	40	13.916770352069
34	42	41	13.945535122917
34	43	42	13.906703865982
34	44	43	13.929781103753
34	45	44	13.945612282939
34	46	45	13.915959525181
34	47	46	13.967522231955
34	48	47	13.972525620006
34	49	48	13.883536923684
34	50	49	13.909812615521
34	51	50	13.926507747294
34	52	51	13.897951097498
34	53	52	13.93396450304
34	54	53	13.967009024217
34	55	54	13.893721483571
34	56	55	13.88568516843
34	57	56	13.927406547926
34	58	57	13.918185825639
34	59	58	13.942741125419
34	60	59	13.888825567171
34	61	60	13.956811681101
34	62	61	13.967852384013
34	63	62	13.917130999181
34	64	63	13.962056111419
34	65	64	13.973261172024
34	66	65	13.976665152721
34	67	66	13.929094264333
34	68	67	13.988442988638
34	69	68	13.963501574658
34	70	69	13.904512311171
34	71	70	13.881385968712
34	72	71	13.955823229789
34	73	72	13.91319160128
34	74	73	13.978148939102
34	76	74	13.952216081487
34	77	75	13.876740762778
34	78	76	13.930089543043
34	79	77	13.916144249656
34	80	78	13.998410794288
34	81	79	13.980069159993
34	82	80	13.95930730181
34	83	81	13.968128457202
34	84	82	13.906429463343
34	85	83	12.184502506689
34	86	84	9.3192249987393
34	203	85	6.6715766769864
34	204	86	4.2657116295168
35	16	15	1.9779607486865
35	17	16	1.8910215140041
35	18	17	1.9502885304927
35	19	18	1.9487977742427
35	20	19	0.32684412917498
35	21	20	-0.010468832007609
35	22	21	0.019935355808121
35	23	22	-0.013846610104666
35	24	23	-0.031103881231974
35	25	24	-0.019656773675234
35	26	25	-0.020166182115208
35	27	26	0.0038720931648282
35	28	27	0.054240274266339
35	29	28	-0.015436567340512
35	30	29	0.056581345198211
35	31	30	-0.0032448794925592
35	32	31	-0.0055553058162339
35	33	32	-0.050768827383871
35	34	33	-2.4932549884193
35	35	34	-3.0438156671366
35	36	35	2.2053875824949
35	37	36	2.0111806241586
35	38	37	2.0503669711854
35	39	38	1.0828428864951
35	40	39	-0.048697646437214
35	41	40	-0.026777386844623
35	42	41	0.028764770848211
35	43	42	-0.038831256935373
35	44	43	0.023077237771357
35	45	44	0.015831179185771
35	46	45	-0.02965275775874
35	47	46	0.051562706774567
35	48	47	0.0050033880514082
35	49	48	-0.088988696322776
35	50	49	0.026275691837073
35	51	50	0.016695131773595
35	52	51	-0.028556649796665
35	53	52	0.036013405541889
35	54	53	0.033044521177652
35	55	54	-0.07328754064627
35	56	55	-0.0080363151407798
35	57	56	0.041721379496158
35	58	57	-0.009220722287429
35	59	58	0.024555299780332
35	60	59	-0.053915558247827
35	61	60	0.067986113929656
35	62	61	0.01104070291156
35	63	62	-0.050721384831705
35	64	63	0.044925112237689
35	65	64	0.011205060605425
35	66	65	0.0034039806970405
35	67	66	-0.047570888388437
35	68	67	0.059348724305165
35	69	68	-0.024941413979978
35	70	69	-0.058989263486584
35	71	70	-0.023126342459582
35	72	71	0.07443726107711
35	73	72	-0.042631628508678
35	74	73	0.064957337821832
35	76	74	-0.025932857615407
35	77	75	-0.075475318708923
35	78	76	0.053348780265079
35	79	77	-0.013945293386932
35	80	78	0.082266544632148
35	81	79	-0.018341634294485
35	82	80	-0.02076185818296
35	83	81	0.0088211553916349
35	84	82	-0.061698993858881
35	85	83	-1.7219269566543
35	86	84	-2.8652775079497
35	203	85	-2.6476483217528
35	204	86	-2.4058650474696
36	16	15	4.3320714987557
36	17	16	5.183486961616
36	18	17	6.3519610936481
36	19	18	7.4221751260776
36	20	19	2.8298121443499
36	21	20	1.8359013100526
36	22	21	1.9272118037584
36	23	22	1.8264910266966
36	24	23	1.7731570813911
36	25	24	1.8050958468359
36	26	25	1.8019031629654
36	27	26	1.8725806391293
36	28	27	2.0255422754474
36	29	28	1.8193896864997
36	30	29	2.0366725650512
36	31	30	1.8599189826534
36	32	31	1.8526149529095
36	33	32	1.7154241454235
36	34	33	0.973
36	35	34	0.973
36	36	35	6.303427561984
36	37	36	7.0154445701984
36	38	37	8.3105242583869
36	39	38	5.6895407911335
36	40	39	1.8694269918782
36	41	40	1.940528745875
36	42	41	2.1299480592744
36	43	42	1.8991694406835
36	44	43	2.1091372507868
36	45	44	2.0864880630902
36	46	45	1.9308080812489
36	47	46	2.2090898398184
36	48	47	2.0528811368149
36	49	48	1.7292056532406
36	50	49	2.1177127068995
36	51	50	2.0873649665686
36	52	51	1.9327741224938
36	53	52	2.1530281120875
36	54	53	2.1466978352857
36	55	54	1.7825965253946
36	56	55	2.0002810933209
36	57	56	2.1714609797662
36	58	57	1.999553894506
36	59	58	2.1154986829051
36	60	59	1.8470270282863
36	61	60	2.2631030576132
36	62	61	2.0727204260443
36	63	62	1.8602543209442
36	64	63	2.1861282607859
36	65	64	2.0738417857687
36	66	65	2.0479224526271
36	67	66	1.8719038420292
36	68	67	2.237740187174
36	69	68	1.9511766336835
36	70	69	1.8314175593046
36	71	70	1.9493699794006
36	72	71	2.2846833100323
36	73	72	1.8870266347629
36	74	73	2.2554324657204
36	76	74	1.9467570144346
36	77	75	1.7738534084078
36	78	76	2.2107965887972
36	79	77	1.9835051352325
36	80	78	2.3162204831367
36	81	79	1.9750085314323
36	82	80	1.9648337724802
36	83	81	2.0652777009624
36	84	82	1.8225039990261
36	85	83	0.973
36	86	84	0.973
36	203	85	0.973
36	204	86	0.973
39	17	16	2414.866372544
39	18	17	2411.9174920589
39	19	18	2407.1873548935
39	20	19	2402.1033929951
39	21	20	2395.6770685576
39	22	21	2387.9239549194
39	23	22	2378.7440047435
39	24	23	2368.9560721758
39	25	24	2359.1622850237
39	26	25	2349.3790714815
39	27	26	2340.0066479368
39	28	27	2334.2982135796
39	29	28	2338.9199148722
39	30	29	2349.5394145362
39	31	30	2359.6285321664
39	32	31	2372.2737052037
39	33	32	2385.1868441795
39	34	33	2397.5486702835
39	35	34	2407.0889696613
39	36	35	2415.9658388555
39	37	36	2423.647086352
39	38	37	2430.5697055
39	39	38	2432.1309365664
39	40	39	2433.9420996767
39	41	40	2436.0121670167
39	42	41	2438.0026650226
39	43	42	2438.973087457
39	44	43	2439.9357083738
39	45	44	2440.9457836029
39	46	45	2441.9557050534
39	47	46	2442.966328533
39	48	47	2443.9770825638
39	49	48	2444.9875938372
39	50	49	2445.9973880129
39	51	50	2447.0079984484
39	52	51	2448.0195114657
39	53	52	2449.0300190145
39	54	53	2450.0409876643
39	55	54	2450.2291497608
39	56	55	2449.1158151244
39	57	56	2448.0031307412
39	58	57	2446.8896077783
39	59	58	2445.7771886681
39	60	59	2444.6627922727
39	61	60	2443.5487240007
39	62	61	2442.4356510476
39	63	62	2441.3226709429
39	64	63	2440.2525785718
39	65	64	2439.3108728111
39	66	65	2438.5962522177
39	67	66	2436.7990822749
39	68	67	2429.1662416559
39	69	68	2417.0518166292
39	70	69	2403.4340603166
39	71	70	2389.5047204611
39	72	71	2375.5916553084
39	73	72	2361.6469742537
39	74	73	2347.7140670773
39	76	74	2333.8022433744
39	77	75	2319.8734200448
39	78	76	2305.9398448825
39	79	77	2292.0082472251
39	80	78	2278.0813544713
39	81	79	2264.1467494853
39	82	80	2250.2047425436
39	83	81	2236.387523783
39	84	82	2222.5732599339
39	85	83	2209.0995266479
39	86	84	2196.4179653845
39	203	85	2185.8774806916
39	204	86	2177.5634707001
40	17	16	1578.4544820301
40	18	17	1579.5372955538
40	19	18	1581.5276954006
40	20	19	1586.6770484103
40	21	20	1593.1860297397
40	22	21	1601.0388657451
40	23	22	1610.3368905932
40	24	23	1620.2507178467
40	25	24	1630.1704749865
40	26	25	1640.0795225166
40	27	26	1650.3859643145
40	28	27	1662.6340421
40	29	28	1674.572302388
40	30	29	1683.5553562185
40	31	30	1692.6539752008
40	32	31	1695.658621354
40	33	32	1697.3425149294
40	34	33	1698.5437799906
40	35	34	1699.4458790058
40	36	35	1700.285246267
40	37	36	1700.9566909699
40	38	37	1703.861074903
40	39	38	1713.8453156259
40	40	39	1725.7636898225
40	41	40	1739.3857854959
40	42	41	1753.170717068
40	43	42	1767.0707531869
40	44	43	1780.9598423252
40	45	44	1794.8503685482
40	46	45	1808.7387800114
40	47	46	1822.6368457591
40	48	47	1836.5367068434
40	49	48	1850.4332295349
40	50	49	1864.3198907189
40	51	50	1878.2177770855
40	52	51	1892.128075731
40	53	52	1906.0245472016
40	54	53	1919.9273597188
40	55	54	1933.8175707525
40	56	55	1947.7134334734
40	57	56	1961.6011801884
40	58	57	1975.4993934687
40	59	58	1989.3838292314
40	60	59	2003.2929440839
40	61	60	2017.1979635302
40	62	61	2031.0905601038
40	63	62	2044.9819978084
40	64	63	2058.9055836303
40	65	64	2072.8190275338
40	66	65	2086.7368559008
40	67	66	2100.5148639437
40	68	67	2112.1094423961
40	69	68	2118.8584406646
40	70	69	2120.7722106203
40	71	70	2120.3017352335
40	72	71	2119.8318095375
40	73	72	2119.3608159879
40	74	73	2118.8902201112
40	76	74	2118.4203363461
40	77	75	2117.9498784048
40	78	76	2117.4792599659
40	79	77	2117.0087083196
40	80	78	2116.5383155849
40	81	79	2116.0676623629
40	82	80	2115.596759134
40	83	81	2113.9468542188
40	84	82	2111.9878848325
40	85	83	2108.709506128
40	86	84	2104.4085110119
40	203	85	2100.8336693775
40	204	86	2097.8476247257
41	18	17	4.11254450365
41	19	18	6.0975231633921
41	20	19	8.1241239797909
41	21	20	10.018434339895
41	22	21	11.94044197294
41	23	22	13.966010854098
41	24	23	13.99429374554
41	25	24	13.992908905046
41	26	25	13.889738958394
41	27	26	13.996094578244
41	28	27	13.943261206169
41	29	28	13.961094655516
41	30	29	13.829256838197
41	31	30	13.436515939642
41	32	31	13.16217219069
41	33	32	12.955925744517
41	34	33	11.26758099839
41	35	34	8.5044873526649
41	36	35	9.3420117710427
41	37	36	6.9079266154914
41	38	37	9.1319836530982
41	39	38	10.970689421588
41	40	39	12.982363875891
41	41	40	13.992697958478
41	42	41	13.936582251703
41	43	42	13.977668084782
41	44	43	13.986179260183
41	45	44	13.884867181559
41	46	45	13.927137885792
41	47	46	13.910710662541
41	48	47	13.909766360957
41	49	48	13.940070941378
41	50	49	13.877076953631
41	51	50	13.90827997843
41	52	51	13.954862964205
41	53	52	13.893197995736
41	54	53	13.963183217549
41	55	54	13.948198468271
41	56	55	13.944161438567
41	57	56	13.928642164022
41	58	57	13.919632288448
41	59	58	13.893341971666
41	60	59	13.941880325
41	61	60	13.998108282317
41	62	61	13.878701872779
41	63	62	13.982008344322
41	64	63	13.95228849458
41	65	64	13.945977008874
41	66	65	13.898765254379
41	67	66	13.884750159571
41	68	67	13.956998247474
41	69	68	13.973321173731
41	70	69	13.980317651937
41	71	70	13.967857702158
41	72	71	13.87017407299
41	73	72	13.907431576322
41	74	73	13.990516319459
41	76	74	13.891874899538
41	77	75	13.937335884271
41	78	76	13.921820710613
41	79	77	13.947281930207
41	80	78	13.958241502543
41	81	79	13.924777132559
41	82	80	13.993273811741
41	83	81	13.884921522941
41	84	82	13.976582028877
41	85	83	13.956678922002
41	86	84	12.428079281867
41	203	85	10.100515241293
41	204	86	7.8193531052903
42	19	18	1.984978659742
42	20	19	2.0266008163989
42	21	20	1.8943103601038
42	22	21	1.9220076330448
42	23	22	2.0255688811579
42	24	23	0.028282891442068
42	25	24	-0.0013848404935555
42	26	25	-0.10316994665191
42	27	26	0.10635561984964
42	28	27	-0.05283337207511
42	29	28	0.017833449346945
42	30	29	-0.13183781731896
42	31	30	-0.3927408985542
42	32	31	-0.27434374895275
42	33	32	-0.20624644617294
42	34	33	-1.6883447461266
42	35	34	-2.7630936457253
42	36	35	0.83752441837784
42	37	36	-2.4340851555514
42	38	37	2.2240570376068
42	39	38	1.8387057684897
42	40	39	2.011674454303
42	41	40	1.0103340825873
42	42	41	-0.056115706774872
42	43	42	0.041085833078251
42	44	43	0.0085111754015088
42	45	44	-0.10131207862403
42	46	45	0.042270704233088
42	47	46	-0.016427223251666
42	48	47	-0.00094430158380554
42	49	48	0.030304580421653
42	50	49	-0.062993987747468
42	51	50	0.031203024799471
42	52	51	0.046582985774148
42	53	52	-0.061664968468248
42	54	53	0.069985221812967
42	55	54	-0.01498474927852
42	56	55	-0.0040370297036123
42	57	56	-0.015519274545367
42	58	57	-0.0090098755736836
42	59	58	-0.026290316781962
42	60	59	0.048538353333717
42	61	60	0.056227957317605
42	62	61	-0.11940640953835
42	63	62	0.10330647154246
42	64	63	-0.029719849741086
42	65	64	-0.0063114857068296
42	66	65	-0.047211754494347
42	67	66	-0.014015094807837
42	68	67	0.072248087902555
42	69	68	0.016322926257271
42	70	69	0.0069964782055472
42	71	70	-0.01245994977886
42	72	71	-0.097683629167731
42	73	72	0.03725750333164
42	74	73	0.083084743137006
42	76	74	-0.098641419920606
42	77	75	0.04546098473249
42	78	76	-0.015515173657331
42	79	77	0.025461219593417
42	80	78	0.010959572335704
42	81	79	-0.033464369983411
42	82	80	0.068496679181699
42	83	81	-0.10835228879936
42	84	82	0.091660505936016
42	85	83	-0.019903106875718
42	86	84	-1.5285996401343
42	203	85	-2.3275640405747
42	204	86	-2.2811621360025
43	19	18	4.3420194955082
43	20	19	5.5193514834883
43	21	20	6.2598837528783
43	22	21	7.3741311479677
43	23	22	8.8530434321966
43	24	23	2.13365012742
43	25	24	2.0334505025289
43	26	25	1.6822325806597
43	27	26	2.3971909293526
43	28	27	1.855503707612
43	29	28	2.0948662776171
43	30	29	1.5820533004125
43	31	30	0.973
43	32	31	0.973
43	33	32	1.2919135943652
43	34	33	0.973
43	35	34	0.973
43	36	35	3.5215990826384
43	37	36	0.973
43	38	37	6.5156001891765
43	39	38	6.6226227280211
43	40	39	8.2324265791826
43	41	40	5.4451881818867
43	42	41	1.8438824401449
43	43	42	2.1749617238466
43	44	43	2.0661193061513
43	45	44	1.6880752085194
43	46	45	2.1732746516206
43	47	46	1.9746491499881
43	48	47	2.0264593789898
43	49	48	2.1345252785117
43	50	49	1.8156237109116
43	51	50	2.1340627994298
43	52	51	2.1908906066732
43	53	52	1.8214679161102
43	54	53	2.2705861872936
43	55	54	1.9831738713403
43	56	55	2.0195663816392
43	57	56	1.9794538530861
43	58	57	2.0004054330977
43	59	58	1.93992520771
43	60	59	2.1959885866008
43	61	60	2.2283411417848
43	62	61	1.6270777435242
43	63	62	2.3851117990842
43	64	63	1.9340301948742
43	65	64	2.0121056433488
43	66	65	1.8703641945081
43	67	66	1.9801814994952
43	68	67	2.277460917713
43	69	68	2.0910828619716
43	70	69	2.0604034814904
43	71	70	1.9936118250746
43	72	71	1.6990698160563
43	73	72	2.1542627543164
43	74	73	2.3180133884777
43	76	74	1.6975579736318
43	77	75	2.185134912585
43	78	76	1.9787974726638
43	79	77	2.1190343839391
43	80	78	2.071439007203
43	81	79	1.9188526777571
43	82	80	2.2691547542171
43	83	81	1.6645209900012
43	84	82	2.3451932944867
43	85	83	1.9674666771295
43	86	84	0.973
43	203	85	0.973
43	204	86	0.973
46	20	19	2414.8588002162
46	21	20	2411.8128147094
46	22	21	2407.1980394585
46	23	22	2402.4260893827
46	24	23	2396.4703598532
46	25	24	2389.2222769874
46	26	25	2380.6475507468
46	27	26	2371.4675885644
46	28	27	2362.2853867376
46	29	28	2353.1014532228
46	30	29	2343.9167522368
46	31	30	2335.7592630242
46	32	31	2334.0763715116
46	33	32	2342.9457734847
46	34	33	2352.7630564623
46	35	34	2362.8963906621
46	36	35	2375.8179889829
46	37	36	2388.7877361589
46	38	37	2401.7727345998
46	39	38	2414.1003036475
46	40	39	2422.4116629731
46	41	40	2429.7483392076
46	42	41	2431.8187159494
46	43	42	2433.5863239734
46	44	43	2435.6333255254
46	45	44	2437.7251014278
46	46	45	2438.8311097387
46	47	46	2439.7530554269
46	48	47	2440.7623816305
46	49	48	2441.7733011593
46	50	49	2442.7835379966
46	51	50	2443.7947770543
46	52	51	2444.8051972518
46	53	52	2445.8169310748
46	54	53	2446.8271123795
46	55	54	2447.8372403309
46	56	55	2448.8468136862
46	57	56	2449.85968903
46	58	57	2450.4280289282
46	59	58	2449.3144754737
46	60	59	2448.1991392631
46	61	60	2447.0859020924
46	62	61	2445.9733171484
46	63	62	2444.8601511701
46	64	63	2443.7485429292
46	65	64	2442.6356549449
46	66	65	2441.5218806025
46	67	66	2440.4231678097
46	68	67	2439.4804845047
46	69	68	2438.6159434677
46	70	69	2437.2669850449
46	71	70	2430.7552516428
46	72	71	2419.3404297139
46	73	72	2405.9348433106
46	74	73	2392.0194124001
46	76	74	2378.1011852593
46	77	75	2364.1953779339
46	78	76	2350.2886800821
46	79	77	2336.3561129614
46	80	78	2322.4562056735
46	81	79	2308.5250294865
46	82	80	2294.5961415229
46	83	81	2280.6805873379
46	84	82	2266.7584311436
46	85	83	2252.8414253348
46	86	84	2238.9878991076
46	203	85	2225.1997955049
46	204	86	2211.6202447684
47	20	19	1578.4572625495
47	21	20	1579.5757325301
47	22	21	1581.5168734081
47	23	22	1586.3502014261
47	24	23	1592.3825349454
47	25	24	1599.723844354
47	26	25	1608.4088607347
47	27	26	1617.7068977449
47	28	27	1627.0072032055
47	29	28	1636.3092626277
47	30	29	1645.6120993933
47	31	30	1655.8232780742
47	32	31	1668.6061278731
47	33	32	1677.8234253228
47	34	33	1686.4625172503
47	35	34	1694.2570089856
47	36	35	1696.1883798428
47	37	36	1697.7153751645
47	38	37	1698.9431934794
47	39	38	1700.1088474551
47	40	39	1700.8851519767
47	41	40	1702.3337102309
47	42	41	1711.7907452099
47	43	42	1723.4225047911
47	44	43	1736.8928158525
47	45	44	1750.6577649042
47	46	45	1764.5359474756
47	47	46	1778.4480041219
47	48	47	1792.3282297663
47	49	48	1806.2303667758
47	50	49	1820.1231154287
47	51	50	1834.0296465904
47	52	51	1847.9249168085
47	53	52	1861.8382519679
47	54	53	1875.7302369392
47	55	54	1889.6214881958
47	56	55	1903.5051126648
47	57	56	1917.4341459852
47	58	57	1931.3353003571
47	59	58	1945.2338942112
47	60	59	1959.1547391778
47	61	60	1973.0493854005
47	62	61	1986.9358909866
47	63	62	2000.8296486354
47	64	63	2014.703963697
47	65	64	2028.5942516169
47	66	65	2042.495602442
47	67	66	2056.3851745035
47	68	67	2070.3130613565
47	69	68	2084.1962146899
47	70	69	2098.0349792624
47	71	70	2110.155092163
47	72	71	2117.83540574
47	73	72	2120.8566767089
47	74	73	2120.3866711082
47	76	74	2119.9165710621
47	77	75	2119.446890506
47	78	76	2118.9771798709
47	79	77	2118.5065954803
47	80	78	2118.037114202
47	81	79	2117.566576791
47	82	80	2117.0961166667
47	83	81	2116.626106902
47	84	82	2116.1558741489
47	85	83	2115.6858153539
47	86	84	2114.3156075384
47	203	85	2112.3603478782
47	204	86	2109.564416348
48	21	20	4.067372106413
48	22	21	5.8844240154271
48	23	22	7.537838140674
48	24	23	9.3614518548586
48	25	24	11.131813735405
48	26	25	13.055222753974
48	27	26	13.056929057404
48	28	27	13.088935566079
48	29	28	13.097759776963
48	30	29	13.007092833967
48	31	30	13.085117228884
48	32	31	13.080600649864
48	33	32	13.117051406159
48	34	33	13.130705420296
48	35	34	13.076950958216
48	36	35	13.090002827352
48	37	36	13.033971088322
48	38	37	13.019674586834
48	39	38	10.823429693182
48	40	39	6.3234296931819
48	41	40	8.6041157709741
48	42	41	10.729878066311
48	43	42	12.674055236164
48	44	43	13.986021694564
48	45	44	13.889535133126
48	46	45	13.959654321973
48	47	46	13.972242008243
48	48	47	13.884239303807
48	49	48	13.920426942427
48	50	49	13.887057281358
48	51	50	13.924890077722
48	52	51	13.888422596853
48	53	52	13.973124842362
48	54	53	13.979389482583
48	55	54	13.907495470522
48	56	55	13.981073234761
48	57	56	13.968595914519
48	58	57	13.977168370693
48	59	58	13.911225638806
48	60	59	13.97115611963
48	61	60	13.928424248584
48	62	61	13.93642065672
48	63	62	13.982039187397
48	64	63	13.971991834943
48	65	64	13.958216204653
48	66	65	13.965484043353
48	67	66	13.949256250246
48	68	67	13.91837227551
48	69	68	13.892609307456
48	70	69	13.98260364667
48	71	70	13.9460709692
48	72	71	13.96612499878
48	73	72	13.92864668397
48	74	73	13.95173190474
48	76	74	13.918730210701
48	77	75	13.915672578188
48	78	76	13.927561233426
48	79	77	13.993053698211
48	80	78	13.911409898638
48	81	79	13.903231616907
48	82	80	13.988286828815
48	83	81	13.977607483284
48	84	82	13.890778108125
48	85	83	13.912375226845
48	86	84	13.984686729049
48	203	85	13.92355159549
48	204	86	13.902143854494
49	22	21	1.8170519090141
49	23	22	1.6534141252469
49	24	23	1.8236137141846
49	25	24	1.770361880546
49	26	25	1.9234090185692
49	27	26	0.0017063034302556
49	28	27	0.032006508675405
49	29	28	0.0088242108840486
49	30	29	-0.090666942996904
49	31	30	0.078024394917302
49	32	31	-0.0045165790198354
49	33	32	0.036450756294652
49	34	33	0.013654014137574
49	35	34	-0.053754462080542
49	36	35	0.013051869135817
49	37	36	-0.056031739029569
49	38	37	-0.014296501488424
49	39	38	-2.1962448936517
49	40	39	-4.5
49	41	40	2.2806860777922
49	42	41	2.1257622953365
49	43	42	1.9441771698534
49	44	43	1.3119664584004
49	45	44	-0.09648656143807
49	46	45	0.07011918884702
49	47	46	0.012587686269544
49	48	47	-0.088002704435493
49	49	48	0.036187638619449
49	50	49	-0.03336966106901
49	51	50	0.037832796364091
49	52	51	-0.036467480869032
49	53	52	0.084702245509252
49	54	53	0.0062646402209054
49	55	54	-0.071894012060946
49	56	55	0.073577764239161
49	57	56	-0.012477320241741
49	58	57	0.0085724561731322
49	59	58	-0.065942731886171
49	60	59	0.059930480823388
49	61	60	-0.042731871046126
49	62	61	0.0079964081360959
49	63	62	0.045618530677165
49	64	63	-0.010047352453695
49	65	64	-0.013775630290619
49	66	65	0.0072678387002085
49	67	66	-0.016227793106809
49	68	67	-0.030883974735625
49	69	68	-0.025762968054043
49	70	69	0.089994339214172
49	71	70	-0.036532677470239
49	72	71	0.020054029580205
49	73	72	-0.037478314810432
49	74	73	0.023085220770444
49	76	74	-0.033001694038976
49	77	75	-0.0030576325138085
49	78	76	0.011888655237852
49	79	77	0.06549246478593
49	80	78	-0.081643799573648
49	81	79	-0.0081782817305065
49	82	80	0.085055211908184
49	83	81	-0.01067934553139
49	84	82	-0.086829375158995
49	85	83	0.021597118719948
49	86	84	0.07231150220381
49	203	85	-0.061135133558418
49	204	86	-0.021407740996221
50	22	21	3.9895326670072
50	23	22	4.516813990543
50	24	23	5.7516577127992
50	25	24	6.5238969694044
50	26	25	7.9969762628647
50	27	26	1.9508699439778
50	28	27	2.049523008974
50	29	28	1.9772596869179
50	30	29	1.656536423546
50	31	30	2.1942461350964
50	32	31	1.933524872338
50	33	32	2.0664831725728
50	34	33	1.9957732435436
50	35	34	1.7780043555849
50	36	35	1.9898373780777
50	37	36	1.767304226999
50	38	37	1.8970896503876
50	39	38	0.973
50	40	39	0.973
50	41	40	6.3131172663211
50	42	41	7.2387381048755
50	43	42	7.8478531352875
50	44	43	6.4595699218881
50	45	44	1.704588734769
50	46	45	2.2706165053704
50	47	46	2.0783904543616
50	48	47	1.7325612239294
50	49	48	2.152114369954
50	50	49	1.9156327972978
50	51	50	2.1581293389031
50	52	51	1.9053919146671
50	53	52	2.321330931143
50	54	53	2.0578412833151
50	55	54	1.7884260015813
50	56	55	2.284823692563
50	57	56	1.993626660217
50	58	57	2.0653843819253
50	59	58	1.8086936113147
50	60	59	2.2376815222912
50	61	60	1.8880865495793
50	62	61	2.0592000420201
50	63	62	2.1907263189022
50	64	63	2.0021462571644
50	65	64	1.9882288612758
50	66	65	2.0597735821873
50	67	66	1.9790992877003
50	68	67	1.9269068362018
50	69	68	1.9416209410549
50	70	69	2.3403282689627
[...]
133	71	70	-0.019635720107244
133	72	71	-0.037259101737432
133	73	72	-0.12407624932234
133	74	73	0.068169374188709
133	76	74	-0.10602199321337
133	77	75	0.035082579645129
133	78	76	-1.5989125860097
133	79	77	-0.005508994532395
133	80	78	-1.9890481690938
133	81	79	2.3297191780875
133	82	80	1.8187147873314
133	83	81	2.0991234644549
133	84	82	0.2131958649508
133	85	83	-0.28564771947791
133	86	84	-0.1124385158857
133	203	85	-0.055883031177817
133	204	86	-0.1590441996325
134	58	57	4.3807066726632
134	59	58	5.1991080184596
134	60	59	5.7420827504996
134	61	60	7.5386032280172
134	62	61	5.7041373063338
134	63	62	0.973
134	64	63	0.973
134	65	64	0.973
134	66	65	1.2562103313914
134	67	66	0.973
134	68	67	1.2261738355377
134	69	68	1.3457592159019
134	70	69	1.2655080649846
134	71	70	1.6525033018792
134	72	71	1.6066057691622
134	73	72	1.3879816033852
134	74	73	1.8598559681442
134	76	74	1.4297881013981
134	77	75	1.7731689671891
134	78	76	0.973
134	79	77	1.5615470750521
134	80	78	0.973
134	81	79	6.5267765144135
134	82	80	6.3776656414914
134	83	81	8.3363783621892
134	84	82	2.5952639192684
134	85	83	0.973
134	86	84	1.5556503718517
134	203	85	1.7218653335713
134	204	86	1.4037869457269
137	59	58	2414.8593783923
137	60	59	2411.9484889912
137	61	60	2407.4094249712
137	62	61	2402.6937210527
137	63	62	2396.641597031
137	64	63	2389.214746958
137	65	64	2380.4731917271
137	66	65	2371.3666080962
137	67	66	2362.2568273076
137	68	67	2353.1410784088
137	69	68	2344.0207437314
137	70	69	2335.9168898315
137	71	70	2334.0024995889
137	72	71	2341.8961523818
137	73	72	2350.7113399879
137	74	73	2359.0855340591
137	76	74	2369.24865364
137	77	75	2379.8366732474
137	78	76	2390.0533914872
137	79	77	2398.9411047139
137	80	78	2407.7525111061
137	81	79	2415.880312068
137	82	80	2423.5398541616
137	83	81	2430.5690994656
137	84	82	2432.1724686521
137	85	83	2434.0497161736
137	86	84	2436.1031465097
137	203	85	2438.008588172
137	204	86	2438.928566306
138	59	58	1578.4570502462
138	60	59	1579.5259136427
138	61	60	1581.3027690053
138	62	61	1586.0791274142
138	63	62	1592.209095275
138	64	63	1599.7314712359
138	65	64	1608.5854624016
138	66	65	1617.8091770476
138	67	66	1627.0361299738
138	68	67	1636.2691277731
138	69	68	1645.5067703351
138	70	69	1655.6214912273
138	71	70	1668.1375688212
138	72	71	1676.9757931605
138	73	72	1684.6122279437
138	74	73	1692.1642859075
138	76	74	1695.2064716825
138	77	75	1696.7057251902
138	78	76	1697.8350513279
138	79	77	1698.6754439641
138	80	78	1699.5086212801
138	81	79	1700.2771591377
138	82	80	1700.9504815331
138	83	81	1703.8592715813
138	84	82	1714.1186178681
138	85	83	1726.4718610914
138	86	84	1739.9844768215
138	203	85	1753.2246061144
138	204	86	1766.2932112049
139	60	59	3.8447639940612
139	61	60	5.6791266903889
139	62	61	7.640854550414
139	63	62	9.4405025505742
139	64	63	11.421963884828
139	65	64	13.012270239909
139	66	65	12.984371756279
139	67	66	12.995853155312
139	68	67	13.006837156665
139	69	68	12.961017791257
139	70	69	13.031157599441
139	71	70	12.559074226099
139	72	71	12.011778056626
139	73	72	11.442599717387
139	74	73	11.144327250079
139	76	74	10.836430972894
139	77	75	10.605546301912
139	78	76	9.5563705982819
139	79	77	9.0466518090707
139	80	78	7.9197055946551
139	81	79	8.7474608801222
139	82	80	7.0086972943185
139	83	81	9.2307973784445
139	84	82	11.33899250808
139	85	83	13.317439644286
139	86	84	13.489648629711
139	203	85	13.24004543179
139	204	86	13.024246025115
140	61	60	1.8343626963277
140	62	61	1.9617278600251
140	63	62	1.7996480001602
140	64	63	1.9814613342541
140	65	64	1.5903063550805
140	66	65	-0.02789848363027
140	67	66	0.011481399033219
140	68	67	0.010984001352917
140	69	68	-0.045819365407805
140	70	69	0.070139808184468
140	71	70	-0.47208337334243
140	72	71	-0.54729616947348
140	73	72	-0.56917833923896
140	74	73	-0.29827246730796
140	76	74	-0.30789627718443
140	77	75	-0.23088467098222
140	78	76	-1.04917570363
140	79	77	-0.50971878921119
140	80	78	-1.1269462144156
140	81	79	0.82775528546711
140	82	80	-1.7387635858037
140	83	81	2.222100084126
140	84	82	2.1081951296353
140	85	83	1.9784471362061
140	86	84	0.17220898542541
140	203	85	-0.24960319792126
140	204	86	-0.21579940667525
141	61	60	3.911518067875
141	62	61	5.1322202484559
141	63	62	5.7376235105578
141	64	63	7.2530068360154
141	65	64	6.9283760980498
141	66	65	1.8512905344394
141	67	66	1.9756419443008
141	68	67	1.9751575931238
141	69	68	1.7932539805744
141	70	69	2.1633169400727
141	71	70	0.973
141	72	71	0.973
141	73	72	0.973
141	74	73	0.973
141	76	74	0.973
141	77	75	0.973
141	78	76	0.973
141	79	77	0.973
141	80	78	0.973
141	81	79	3.3388327169313
141	82	80	0.973
141	83	81	6.5712859282952
141	84	82	7.5527297407881
141	85	83	8.3204552480566
141	86	84	2.5473572367011
141	203	85	1.1666612562408
141	204	86	1.2650232158867
144	62	61	2414.8844513154
144	63	62	2411.952405891
144	64	63	2407.1483753425
144	65	64	2402.0327751596
144	66	65	2395.5605150873
144	67	66	2387.7034512246
144	68	67	2378.4408955037
144	69	68	2368.6464148381
144	70	69	2358.85036586
144	71	70	2349.0623008312
144	72	71	2339.7408343487
144	73	72	2334.2278371524
144	74	73	2339.2625557089
144	76	74	2349.4910571177
144	77	75	2358.9042269117
144	78	76	2370.0415060408
144	79	77	2380.5743651568
144	80	78	2390.6718106639
144	81	79	2399.8656969293
144	82	80	2408.6379168016
144	83	81	2417.2194066041
144	84	82	2424.4975534223
144	85	83	2430.7423935193
144	86	84	2432.266259757
144	203	85	2434.0765236972
144	204	86	2436.1311429263
145	62	61	1578.4478435991
145	63	62	1579.5244753771
145	64	63	1581.5671763159
145	65	64	1586.7485745484
145	66	65	1593.304082348
145	67	66	1601.2622056101
145	68	67	1610.6438984955
145	69	68	1620.5643580696
145	70	69	1630.4864061279
145	71	70	1640.400367545
145	72	71	1650.7262470797
145	73	72	1663.0578762544
145	74	73	1674.8490054691
145	76	74	1683.5117462864
145	77	75	1692.000778581
145	78	76	1695.3249780769
145	79	77	1696.7935269903
145	80	78	1697.89352699
145	81	79	1698.7628703322
145	82	80	1699.5923423013
145	83	81	1700.4037794685
145	84	82	1701.0059385058
145	85	83	1704.7079963367
145	86	84	1714.7358110286
145	203	85	1726.6482682284
145	204	86	1740.1687074769
146	63	62	4.018615917157
146	64	63	6.1678624366304
146	65	64	8.1947875515009
146	66	65	10.095725917275
146	67	66	12.087148355938
146	68	67	13.916756611222
146	69	68	13.873082711415
146	70	69	13.970749160051
146	71	70	13.922085633471
146	72	71	13.919626296114
146	73	72	13.89674285165
146	74	73	13.8748673278
146	76	74	13.050387363084
146	77	75	12.313109540106
146	78	76	11.372147735548
146	79	77	10.365966287683
146	80	78	9.4953062928876
146	81	79	9.4861117981816
146	82	80	7.9931687686442
146	83	81	9.1878188845829
146	84	82	6.9895311099889
146	85	83	9.094548749743
146	86	84	11.030252739443
146	203	85	12.881577137495
146	204	86	13.968358664801
147	64	63	2.1492465194734
147	65	64	2.0269251148705
147	66	65	1.9009383657738
147	67	66	1.9914224386634
147	68	67	1.8296082552838
147	69	68	-0.043673899807034
147	70	69	0.097666448636446
147	71	70	-0.048663526580203
147	72	71	-0.0024593373574326
147	73	72	-0.022883444463368
147	74	73	-0.0218755238506
147	76	74	-0.82447996471606
147	77	75	-0.73727782297787
147	78	76	-0.94096180455795
147	79	77	-1.0061814478652
147	80	78	-0.87065999479511
147	81	79	-0.0091944947059677
147	82	80	-1.4929430295375
147	83	81	1.1946501159387
147	84	82	-2.198287774594
147	85	83	2.1050176397541
147	86	84	1.9357039897004
147	203	85	1.8513243980519
147	204	86	1.086781527306
148	64	63	4.6239714702746
148	65	64	5.559217427776
148	66	65	6.3171910975532
148	67	66	7.6572369962964
148	68	67	8.1667304192483
148	69	68	1.8798735915629
148	70	69	2.3646891363214
148	71	70	1.867603388115
148	72	71	2.0223794668753
148	73	72	1.9516596977621
148	74	73	1.9529264458677
148	76	74	0.973
148	77	75	0.973
148	78	76	0.973
148	79	77	0.973
148	80	78	0.973
148	81	79	1.6254464959265
148	82	80	0.973
148	83	81	4.2701405197745
148	84	82	0.973
148	85	83	6.2319587631773
148	86	84	6.9117372759842
148	203	85	7.6762302958424
148	204	86	5.6941199849302
151	65	64	2414.8420826617
151	66	65	2411.6921621242
151	67	66	2406.8077182934
151	68	67	2401.6811510426
151	69	68	2395.3062389906
151	70	69	2387.5620720242
151	71	70	2378.9876058855
151	72	71	2370.4015149698
151	73	72	2361.816110178
151	74	73	2353.2254117181
151	76	74	2344.6311708436
151	77	75	2336.9076843112
151	78	76	2333.8926936223
151	79	77	2340.2200407498
151	80	78	2349.522631368
151	81	79	2358.6080084353
151	82	80	2369.8655446537
151	83	81	2381.9576193939
151	84	82	2394.1195587356
151	85	83	2406.3064077778
151	86	84	2417.349401294
151	203	85	2424.5785808832
151	204	86	2430.755747596
152	65	64	1578.4634011481
152	66	65	1579.6200355301
152	67	66	1581.9122149758
152	68	67	1587.1047213376
152	69	68	1593.5616290038
152	70	69	1601.4054032629
152	71	70	1610.0901561966
152	72	71	1618.7866834281
152	73	72	1627.4825157104
152	74	73	1636.183709749
152	76	74	1644.8884917665
152	77	75	1654.3531200849
152	78	76	1665.9501736853
152	79	77	1675.6222322211
152	80	78	1683.5402207365
152	81	79	1691.7336413395
152	82	80	1695.2986774063
152	83	81	1696.9581651138
152	84	82	1698.2195345946
152	85	83	1699.3718825541
152	86	84	1700.4160713349
152	203	85	1701.0106305191
152	204	86	1704.7958729528
153	66	65	4.2842987557744
153	67	66	6.3335589328256
153	68	67	8.0892261283855
153	69	68	9.909994260104
153	70	69	11.839966300701
153	71	70	12.266656966092
153	72	71	12.295276953945
153	73	72	12.238093200747
153	74	73	12.208948951288
153	76	74	12.283356812437
153	77	75	12.271017379569
153	78	76	12.177356552488
153	79	77	12.250097024875
153	80	78	12.189899781536
153	81	79	12.216411735568
153	82	80	12.24442244583
153	83	81	12.176833894662
153	84	82	12.227113323346
153	85	83	12.233818625032
153	86	84	9.2681343349676
153	203	85	6.951859368236
153	204	86	9.2314506183111
154	67	66	2.0492601770512
154	68	67	1.7556671955599
154	69	68	1.8207681317185
154	70	69	1.9299720405973
154	71	70	0.42669066539084
154	72	71	0.028619987852872
154	73	72	-0.057183753198478
154	74	73	-0.029144249458332
154	76	74	0.074407861148938
154	77	75	-0.012339432868174
154	78	76	-0.093660827081186
154	79	77	0.072740472387522
154	80	78	-0.060197243338916
154	81	79	0.026511954031884
154	82	80	0.028010710261297
154	83	81	-0.067588551167864
154	84	82	0.050279428684153
154	85	83	0.0067053016857237
154	86	84	-2.965684290064
154	203	85	-2.3162749667316
154	204	86	2.279591250075
155	67	66	4.5669665819023
155	68	67	4.9718018898546
155	69	68	6.0265212158169
155	70	69	7.3415326447534
155	71	70	3.1336645143854
155	72	71	1.9596366708659
155	73	72	1.7010311945519
155	74	73	1.781322330603
155	76	74	2.0940258423692
155	77	75	1.8361547731665
155	78	76	1.5893789470923
155	79	77	2.0855153956409
155	80	78	1.6885250851001
155	81	79	1.9457988937384
155	82	80	1.9529129732982
155	83	81	1.6658561967065
155	84	82	2.0168629541678
155	85	83	1.8890738486753
155	86	84	0.973
155	203	85	0.973
155	204	86	6.6995878675228
158	68	67	2414.8461773879
158	69	68	2411.8156173957
158	70	69	2407.0654892415
158	71	70	2401.9492347768
158	72	71	2395.3429720888
158	73	72	2387.2616390446
158	74	73	2377.8896717046
158	76	74	2368.132777152
158	77	75	2358.352849392
158	78	76	2348.5864132382
158	79	77	2339.3564212093
158	80	78	2334.1342350811
158	81	79	2339.6713423185
158	82	80	2350.2392751323
158	83	81	2360.353480833
158	84	82	2373.2728725324
158	85	83	2386.2492387758
158	86	84	2398.4646979315
158	203	85	2407.8223555434
158	204	86	2416.8864083674
159	68	67	1578.4618975855
159	69	68	1579.5747033991
159	70	69	1581.6511285175
159	71	70	1586.8331894474
159	72	71	1593.5244234363
159	73	72	1601.709700482
159	74	73	1611.2022122648
159	76	74	1621.0846022842
159	77	75	1630.9903217694
159	78	76	1640.8823761158
159	79	77	1651.2183557283
159	80	78	1663.6215842515
159	81	79	1675.1791252401
159	82	80	1684.1865080334
159	83	81	1693.3077520663
159	84	82	1695.8079653131
159	85	83	1697.4689635951
159	86	84	1698.6303965217
159	203	85	1699.5152255381
159	204	86	1700.3722922616
160	69	68	4.1832233416825
160	70	69	6.094705743054
160	71	70	8.2377684972995
160	72	71	10.383634851228
160	73	72	12.377837524719
160	74	73	13.95514258502
160	76	74	13.851584344874
160	77	75	13.90825316288
160	78	76	13.850232986188
160	79	77	13.868391821445
160	80	78	13.842565385092
160	81	79	13.880377471799
160	82	80	13.824036118681
160	83	81	13.44125427326
160	84	82	13.195892382637
160	85	83	12.988348819491
160	86	84	11.051899495583
160	203	85	8.5596046509373
160	204	86	9.4337142466086
161	70	69	1.9114824013715
161	71	70	2.1430627542455
161	72	71	2.1458663539286
161	73	72	1.9942026734911
161	74	73	1.5773050603013
161	76	74	-0.10355824014638
161	77	75	0.056668818006292
161	78	76	-0.058020176691935
161	79	77	0.018158835256473
161	80	78	-0.025826436353382
161	81	79	0.03781208670698
161	82	80	-0.056341353117917
161	83	81	-0.38278184542026
161	84	82	-0.24536189062374
161	85	83	-0.20754356314608
161	86	84	-1.9364493239075
161	203	85	-2.4922948446457
161	204	86	0.87410959567127
162	70	69	4.2325536946742
162	71	70	5.8136589782112
162	72	71	7.0842665770013
162	73	72	7.8311198804753
162	74	73	7.3390305246716
162	76	74	1.6780100664083
162	77	75	2.2194183790726
162	78	76	1.8299085364327
162	79	77	2.0861090205836
162	80	78	1.9366386539141
162	81	79	2.1531225624654
162	82	80	1.833214196001
162	83	81	0.973
162	84	82	1.1785376743835
162	85	83	1.289317924974
162	86	84	0.973
162	203	85	0.973
162	204	86	3.6299494821753
165	71	70	2414.8737180224
165	72	71	2411.8680781076
165	73	72	2407.1568522488
165	74	73	2402.2695560248
165	76	74	2396.026197728
165	77	75	2388.8156860289
165	78	76	2381.5505374246
165	79	77	2374.29244742
165	80	78	2367.0056487003
165	81	79	2359.7510255593
165	82	80	2352.5099029642
165	83	81	2345.2446918846
165	84	82	2338.5956882177
165	85	83	2334.510232391
165	86	84	2335.3077529006
165	203	85	2343.1748500988
165	204	86	2350.9512399695
166	71	70	1578.4517848091
166	72	71	1579.555440099
166	73	72	1581.5585903777
166	74	73	1586.5087481523
166	76	74	1592.8324099882
166	77	75	1600.1356649809
166	78	76	1607.4942596303
166	79	77	1614.8457048917
166	80	78	1622.2262281263
166	81	79	1629.5741619319
166	82	80	1636.9084215444
166	83	81	1644.2670794735
166	84	82	1652.19221236
166	85	83	1661.3571825419
166	86	84	1671.3368108161
166	203	85	1678.008418465
166	204	86	1684.8285757564
167	72	71	4.0859593419879
167	73	72	6.0045190997058
167	74	73	7.8119547564685
167	76	74	9.7132447450151
167	77	75	10.305879691574
167	78	76	10.360164749592
167	79	77	10.362935353057
167	80	78	10.312807143824
167	81	79	10.375441872943
167	82	80	10.299517820359
167	83	81	10.312693880121
167	84	82	10.402105987973
167	85	83	10.374811264868
167	86	84	10.33296438281
167	203	85	10.292473317215
167	204	86	10.402252755186
168	73	72	1.9185597577179
168	74	73	1.8074356567627
168	76	74	1.9012899885466
168	77	75	0.59263494655885
168	78	76	0.054285058018287
168	79	77	0.0027706034644499
168	80	78	-0.050128209232353
168	81	79	0.062634729119019
168	82	80	-0.075924052584451
168	83	81	0.013176059762481
168	84	82	0.089412107851823
168	85	83	-0.027294723105152
168	86	84	-0.041846882058307
168	203	85	-0.040491065594834
168	204	86	0.1097794379713
169	73	72	4.1959838790125
169	74	73	4.9337141016577
169	76	74	6.1139389675705
169	77	75	3.1802109976683
169	78	76	1.8480374430506
169	79	77	1.7196341081864
169	80	78	1.5842237541346
169	81	79	1.8703075779173
169	82	80	1.5193220070009
169	83	81	1.7415501691917
169	84	82	1.9399222969325
169	85	83	1.645395562495
169	86	84	1.6061704388765
169	203	85	1.6067951515463
169	204	86	1.9909966746953
172	74	73	2414.8769514603
172	76	74	2411.9119199329
172	77	75	2407.298265514
172	78	76	2402.4443862444
172	79	77	2396.2601480235
172	80	78	2388.6069567787
172	81	79	2379.616833211
172	82	80	2370.4989479294
172	83	81	2361.4831209757
172	84	82	2352.8745644127
172	85	83	2344.584524505
172	86	84	2337.3469447539
172	203	85	2334.0507973665
172	204	86	2337.7727678836
173	74	73	1578.4505975069
173	76	74	1579.5393416099
173	77	75	1581.4153582221
173	78	76	1586.3316692254
173	79	77	1592.5954505689
173	80	78	1600.3470789557
173	81	79	1609.4528356018
173	82	80	1618.6879972629
173	83	81	1627.8197878981
173	84	82	1636.5390697354
173	85	83	1644.9357380811
173	86	84	1653.7907983502
173	203	85	1664.1240785467
173	204	86	1673.6459122086
174	76	74	4.0735588402093
174	77	75	5.8290612863471
174	78	76	7.862662603839
174	79	77	9.6879727271526
174	80	78	11.944467225839
174	81	79	12.953456134841
174	82	80	12.998777343629
174	83	81	12.605227840698
174	84	82	12.014084930552
174	85	83	11.584700541917
174	86	84	11.358179795498
174	203	85	11.081834647454
174	204	86	10.873275918259
175	77	75	1.7555024461378
175	78	76	2.0336013174918
175	79	77	1.8253101233137
175	80	78	2.2564944986859
175	81	79	1.0089889090025
175	82	80	0.045321208788081
175	83	81	-0.39354950293096
175	84	82	-0.59114291014626
175	85	83	-0.42938438863522
175	86	84	-0.22652074641895
175	203	85	-0.27634514804333
175	204	86	-0.20855872919588
176	77	75	3.8756268936732
176	78	76	5.3876730590065
176	79	77	5.9230829630863
176	80	78	8.3392083846763
176	81	79	5.0855033372062
176	82	80	2.0819381521331
176	83	81	0.973
176	84	82	0.973
176	85	83	0.973
176	86	84	1.1732211916124
176	203	85	0.973
176	204	86	1.2067626787784
179	78	76	2414.8732395561
179	79	77	2411.9082769358
179	80	78	2407.1655617389
179	81	79	2402.128447905
179	82	80	2395.6944575682
179	83	81	2387.9337748789
179	84	82	2378.7673655167
179	85	83	2368.9823548129
179	86	84	2359.2122518424
179	203	85	2349.4316794267
179	204	86	2340.0865105919
180	78	76	1578.4519604994
180	79	77	1579.5406792993
180	80	78	1581.5497688642
180	81	79	1586.6516712382
180	82	80	1593.1684170682
180	83	81	1601.0289194789
180	84	82	1610.3132293485
180	85	83	1620.224097156
180	86	84	1630.1198654827
180	203	85	1640.0262379153
180	204	86	1650.2837276859
181	79	77	4.0635240824116
181	80	78	6.1144633837571
181	81	79	8.1038544815257
181	82	80	10.046968652414
181	83	81	11.926067483762
181	84	82	13.892129573808
181	85	83	13.936045407304
181	86	84	13.893183273086
181	203	85	13.889124961388
181	204	86	13.833042053432
182	80	78	2.0509393013455
182	81	79	1.9893910977687
182	82	80	1.9431141708884
182	83	81	1.8790988313477
182	84	82	1.9660620900462
182	85	83	0.043915833495557
182	86	84	-0.042862134217286
182	203	85	-0.0040583116980262
182	204	86	-0.056082907956451
183	80	78	4.4483142439603
183	81	79	5.4354323508198
183	82	80	6.3932525708783
183	83	81	7.2428843983977
183	84	82	8.6102118406059
183	85	83	2.1797995320176
183	86	84	1.884423361701
183	203	85	2.0139397067959
183	204	86	1.8348652346028
186	81	79	2414.8461739381
186	82	80	2411.9468780267
186	83	81	2407.2557718946
186	84	82	2402.3132644872
186	85	83	2396.0984851476
186	86	84	2388.637281624
186	203	85	2379.8467096724
186	204	86	2370.3468173424
187	81	79	1578.4618988531
187	82	80	1579.5265051797
187	83	81	1581.4583984045
187	84	82	1586.4644775018
187	85	83	1592.7591927908
187	86	84	1600.3163640648
187	203	85	1609.2200024156
187	204	86	1618.8420845894
188	82	80	4.0267229073465
188	83	81	5.9477333564631
188	84	82	7.8212407105433
188	85	83	9.6026732088782
188	86	84	11.466286668062
188	203	85	13.286947636499
188	204	86	13.562368140693
189	83	81	1.9210104491166
189	84	82	1.8735073540802
189	85	83	1.7814324983349
189	86	84	1.8636134591838
189	203	85	1.8206609684369
189	204	86	0.27542050419428
190	83	81	4.1699391246736
190	84	82	5.0629039791787
190	85	83	5.7777020757503
190	86	84	6.9522613836103
190	203	85	7.7976945860273
190	204	86	2.8949203803963
193	84	82	2414.8840517174
193	85	83	2412.0108083608
193	86	84	2407.4277382374
193	203	85	2402.5740833235
193	204	86	2396.4932427702
194	84	82	1578.4479903299
194	85	83	1579.5030302955
194	86	84	1581.2842201898
194	203	85	1586.2003039522
194	204	86	1592.3593577035
195	85	83	3.8169569386458
195	86	84	5.8201201644269
195	203	85	7.6568561983863
195	204	86	9.4728654203107
196	86	84	2.0031632257812
196	203	85	1.8367360339593
196	204	86	1.8160092219245
197	86	84	4.2187098686395
197	203	85	4.910169108938
197	204	86	5.791375069684
200	203	85	2414.8736667775
200	204	86	2411.9596294151
201	203	85	1578.4518036256
201	204	86	1579.5218229368
202	204	86	4.0343364698305

